
     RDKit          3D

129139  0  0  0  0  0  0  0  0999 V2000
   49.1538    7.1732   17.4203 C   0  0  0  0  0  0  0  0  0  0  0  0
   49.3157    8.0864   16.3453 C   0  0  0  0  0  0  0  0  0  0  0  0
   49.6687    5.8526   17.4471 C   0  0  0  0  0  0  0  0  0  0  0  0
   48.4252    7.6205   18.5432 C   0  0  0  0  0  0  0  0  0  0  0  0
   49.4673    5.0041   18.5431 C   0  0  0  0  0  0  0  0  0  0  0  0
   48.7351    5.4645   19.6498 C   0  0  0  0  0  0  0  0  0  0  0  0
   48.2234    6.7655   19.6411 C   0  0  0  0  0  0  0  0  0  0  0  0
   48.8094    9.3479   16.3738 N   0  0  0  0  0  0  0  0  0  0  0  0
   51.2736   10.5724   12.8888 C   0  0  0  0  0  0  0  0  0  0  0  0
   50.0856    7.6798   15.0970 C   0  0  0  0  0  0  0  0  0  0  0  0
   50.2767   10.5907   11.8932 C   0  0  0  0  0  0  0  0  0  0  0  0
   51.2042    9.6281   13.9214 C   0  0  0  0  0  0  0  0  0  0  0  0
   50.1539    8.6981   13.9770 C   0  0  0  0  0  0  0  0  0  0  0  0
   49.2238    9.6724   11.9563 C   0  0  0  0  0  0  0  0  0  0  0  0
   49.1610    8.7368   12.9922 C   0  0  0  0  0  0  0  0  0  0  0  0
   48.1230    9.7327   17.4637 C   0  0  0  0  0  0  0  0  0  0  0  0
   49.9398    3.7178   18.6274 O   0  0  0  0  0  0  0  0  0  0  0  0
   48.5789    4.5740   20.6828 O   0  0  0  0  0  0  0  0  0  0  0  0
   52.2735   11.5061   12.7592 O   0  0  0  0  0  0  0  0  0  0  0  0
   50.4207   11.5397   10.9105 O   0  0  0  0  0  0  0  0  0  0  0  0
   47.9065    8.9180   18.5561 C   0  0  0  0  0  0  0  0  0  0  0  0
   50.6976    3.2121   17.5382 C   0  0  0  0  0  0  0  0  0  0  0  0
   53.1959   11.6303   13.8314 C   0  0  0  0  0  0  0  0  0  0  0  0
   47.8168    4.9885   21.8070 C   0  0  0  0  0  0  0  0  0  0  0  0
   49.3950   11.6335    9.9333 C   0  0  0  0  0  0  0  0  0  0  0  0
   49.6555    7.8182   15.1873 C   0  0  2  0  0  0  0  0  0  0  0  0
   49.3916    9.0968   15.9258 C   0  0  0  0  0  0  0  0  0  0  0  0
   50.7343    7.0442   15.9570 C   0  0  2  0  0  0  0  0  0  0  0  0
   49.1729   10.1269   15.0418 C   0  0  0  0  0  0  0  0  0  0  0  0
   50.0410    8.4616   13.8324 C   0  0  1  0  0  0  0  0  0  0  0  0
   49.3452    9.7558   13.7359 O   0  0  0  0  0  0  0  0  0  0  0  0
   50.1654    6.8377   17.4066 C   0  0  1  0  0  0  0  0  0  0  0  0
   49.4580    9.3018   17.2946 C   0  0  0  0  0  0  0  0  0  0  0  0
   52.0846    7.7194   15.8880 C   0  0  0  0  0  0  0  0  0  0  0  0
   49.9816    8.1914   18.1674 C   0  0  0  0  0  0  0  0  0  0  0  0
   48.8410    6.1594   17.4105 N   0  0  0  0  0  0  0  0  0  0  0  0
   48.3488    6.9911   15.1089 C   0  0  0  0  0  0  0  0  0  0  0  0
   52.4514    8.4472   14.8208 C   0  0  0  0  0  0  0  0  0  0  0  0
   51.5786    8.6064   13.6034 C   0  0  2  0  0  0  0  0  0  0  0  0
   48.8809   11.3932   15.4948 C   0  0  0  0  0  0  0  0  0  0  0  0
   48.3331    5.8053   16.0871 C   0  0  0  0  0  0  0  0  0  0  0  0
   49.1609   10.5844   17.7689 C   0  0  0  0  0  0  0  0  0  0  0  0
   48.8508   11.6240   16.8685 C   0  0  0  0  0  0  0  0  0  0  0  0
   48.6648   12.4183   14.6269 O   0  0  0  0  0  0  0  0  0  0  0  0
   51.8935    9.8272   12.9387 O   0  0  0  0  0  0  0  0  0  0  0  0
   48.8120    5.0168   18.3190 C   0  0  0  0  0  0  0  0  0  0  0  0
   48.9254    8.8541   15.4425 C   0  0  2  0  0  0  0  0  0  0  0  0
   49.6129    7.7706   16.2077 C   0  0  0  0  0  0  0  0  0  0  0  0
   49.9801    9.8161   14.8775 C   0  0  2  0  0  0  0  0  0  0  0  0
   48.8899    7.4265   17.3301 C   0  0  0  0  0  0  0  0  0  0  0  0
   48.0250    9.3664   16.5837 C   0  0  1  0  0  0  0  0  0  0  0  0
   47.7950    8.2396   17.5068 O   0  0  0  0  0  0  0  0  0  0  0  0
   50.9347    8.9516   13.9885 C   0  0  2  0  0  0  0  0  0  0  0  0
   50.1305    8.4733   12.8309 N   0  0  0  0  0  0  0  0  0  0  0  0
   50.8486    7.2252   15.9173 C   0  0  0  0  0  0  0  0  0  0  0  0
   50.6618   10.6185   15.9597 C   0  0  0  0  0  0  0  0  0  0  0  0
   51.6701    7.8347   14.8119 C   0  0  0  0  0  0  0  0  0  0  0  0
   48.1171    8.2391   14.2824 C   0  0  0  0  0  0  0  0  0  0  0  0
   50.0207   10.9538   17.0902 C   0  0  0  0  0  0  0  0  0  0  0  0
   48.5902   10.5888   17.3671 C   0  0  2  0  0  0  0  0  0  0  0  0
   49.3123    6.4170   18.1759 C   0  0  0  0  0  0  0  0  0  0  0  0
   49.0159    7.5985   13.2141 C   0  0  0  0  0  0  0  0  0  0  0  0
   51.3015    6.2057   16.7542 C   0  0  0  0  0  0  0  0  0  0  0  0
   50.5288    5.7917   17.8632 C   0  0  0  0  0  0  0  0  0  0  0  0
   50.9407    7.8644   11.7797 C   0  0  0  0  0  0  0  0  0  0  0  0
   48.4457   10.4354   18.7786 O   0  0  0  0  0  0  0  0  0  0  0  0
   48.5174    6.1465   19.2509 O   0  0  0  0  0  0  0  0  0  0  0  0
   48.9410    5.1042   20.1182 C   0  0  0  0  0  0  0  0  0  0  0  0
   50.2332    5.4963   16.5929 H   0  0  0  0  0  0  0  0  0  0  0  0
   47.6587    7.1406   20.4890 H   0  0  0  0  0  0  0  0  0  0  0  0
   49.6368    6.7642   14.6898 H   0  0  0  0  0  0  0  0  0  0  0  0
   51.1119    7.4208   15.3890 H   0  0  0  0  0  0  0  0  0  0  0  0
   51.9565    9.5972   14.7026 H   0  0  0  0  0  0  0  0  0  0  0  0
   48.4314    9.6592   11.2163 H   0  0  0  0  0  0  0  0  0  0  0  0
   48.3250    8.0420   13.0292 H   0  0  0  0  0  0  0  0  0  0  0  0
   47.7385   10.7482   17.4341 H   0  0  0  0  0  0  0  0  0  0  0  0
   47.3414    9.2977   19.4008 H   0  0  0  0  0  0  0  0  0  0  0  0
   51.6121    3.7953   17.3884 H   0  0  0  0  0  0  0  0  0  0  0  0
   50.0969    3.1740   16.6236 H   0  0  0  0  0  0  0  0  0  0  0  0
   50.9939    2.1878   17.7835 H   0  0  0  0  0  0  0  0  0  0  0  0
   53.8640   12.4662   13.6023 H   0  0  0  0  0  0  0  0  0  0  0  0
   53.8121   10.7303   13.9255 H   0  0  0  0  0  0  0  0  0  0  0  0
   52.6853   11.8621   14.7721 H   0  0  0  0  0  0  0  0  0  0  0  0
   48.2909    5.8347   22.3147 H   0  0  0  0  0  0  0  0  0  0  0  0
   47.7827    4.1542   22.5142 H   0  0  0  0  0  0  0  0  0  0  0  0
   46.7862    5.2237   21.5215 H   0  0  0  0  0  0  0  0  0  0  0  0
   49.3323   10.7168    9.3378 H   0  0  0  0  0  0  0  0  0  0  0  0
   48.4308   11.8755   10.3922 H   0  0  0  0  0  0  0  0  0  0  0  0
   49.6536   12.4521    9.2547 H   0  0  0  0  0  0  0  0  0  0  0  0
   50.8864    6.0554   15.5013 H   0  0  0  0  0  0  0  0  0  0  0  0
   49.6540    7.8644   12.9970 H   0  0  0  0  0  0  0  0  0  0  0  0
   50.8924    6.2355   17.9692 H   0  0  0  0  0  0  0  0  0  0  0  0
   52.7761    7.5865   16.7163 H   0  0  0  0  0  0  0  0  0  0  0  0
   49.3287    8.0616   19.0396 H   0  0  0  0  0  0  0  0  0  0  0  0
   50.9622    8.5041   18.5496 H   0  0  0  0  0  0  0  0  0  0  0  0
   47.4663    7.6193   15.2901 H   0  0  0  0  0  0  0  0  0  0  0  0
   48.2256    6.5730   14.1019 H   0  0  0  0  0  0  0  0  0  0  0  0
   53.4422    8.8924   14.8065 H   0  0  0  0  0  0  0  0  0  0  0  0
   51.8807    7.8041   12.9171 H   0  0  0  0  0  0  0  0  0  0  0  0
   48.9121    4.9749   15.6613 H   0  0  0  0  0  0  0  0  0  0  0  0
   47.2988    5.4477   16.1676 H   0  0  0  0  0  0  0  0  0  0  0  0
   49.1963   10.7971   18.8346 H   0  0  0  0  0  0  0  0  0  0  0  0
   48.6315   12.6199   17.2424 H   0  0  0  0  0  0  0  0  0  0  0  0
   48.8228   12.0385   13.7406 H   0  0  0  0  0  0  0  0  0  0  0  0
   52.8591    9.8966   12.8731 H   0  0  0  0  0  0  0  0  0  0  0  0
   49.4910    4.2202   17.9951 H   0  0  0  0  0  0  0  0  0  0  0  0
   47.8003    4.6015   18.3872 H   0  0  0  0  0  0  0  0  0  0  0  0
   49.0936    5.3221   19.3329 H   0  0  0  0  0  0  0  0  0  0  0  0
   49.4909   10.5586   14.2285 H   0  0  0  0  0  0  0  0  0  0  0  0
   47.0354    9.6464   16.2000 H   0  0  0  0  0  0  0  0  0  0  0  0
   51.7075    9.6193   13.5829 H   0  0  0  0  0  0  0  0  0  0  0  0
   51.6779   10.9659   15.7924 H   0  0  0  0  0  0  0  0  0  0  0  0
   52.0518    7.0443   14.1582 H   0  0  0  0  0  0  0  0  0  0  0  0
   52.5479    8.2986   15.2818 H   0  0  0  0  0  0  0  0  0  0  0  0
   47.5183    9.0303   13.8110 H   0  0  0  0  0  0  0  0  0  0  0  0
   47.4064    7.4853   14.6448 H   0  0  0  0  0  0  0  0  0  0  0  0
   50.5240   11.5661   17.8345 H   0  0  0  0  0  0  0  0  0  0  0  0
   47.9938   11.4684   17.0944 H   0  0  0  0  0  0  0  0  0  0  0  0
   48.3930    7.3930   12.3343 H   0  0  0  0  0  0  0  0  0  0  0  0
   49.3807    6.6253   13.5649 H   0  0  0  0  0  0  0  0  0  0  0  0
   52.2673    5.7383   16.5755 H   0  0  0  0  0  0  0  0  0  0  0  0
   50.9308    4.9977   18.4849 H   0  0  0  0  0  0  0  0  0  0  0  0
   50.3333    7.7010   10.8823 H   0  0  0  0  0  0  0  0  0  0  0  0
   51.3670    6.9003   12.0742 H   0  0  0  0  0  0  0  0  0  0  0  0
   51.7587    8.5301   11.4834 H   0  0  0  0  0  0  0  0  0  0  0  0
   48.2763    9.4848   18.9335 H   0  0  0  0  0  0  0  0  0  0  0  0
   49.8968    5.3501   20.5926 H   0  0  0  0  0  0  0  0  0  0  0  0
   48.1928    5.0031   20.9102 H   0  0  0  0  0  0  0  0  0  0  0  0
   48.9968    4.1471   19.5889 H   0  0  0  0  0  0  0  0  0  0  0  0
  2  1  1  0
  3  1  2  0
  4  1  1  0
  5  3  1  0
  6  7  1  0
  7  4  2  0
  8  2  2  0
  9 12  2  0
 10  2  1  0
 11 14  2  0
 12 13  1  0
 13 10  1  0
 14 15  1  0
 15 13  2  0
 16 21  2  0
 17  5  1  0
 18  6  1  0
 19  9  1  0
 20 11  1  0
 21  4  1  0
 22 17  1  0
 23 19  1  0
 24 18  1  0
 25 20  1  0
 16  8  1  0
  6  5  2  0
 11  9  1  0
 27 26  1  0
 28 26  1  0
 29 27  2  0
 30 26  1  0
 30 31  1  0
 32 28  1  0
 33 27  1  0
 28 34  1  0
 32 35  1  0
 36 41  1  0
 26 37  1  1
 38 39  1  0
 39 30  1  0
 40 29  1  0
 41 37  1  0
 42 33  2  0
 43 42  1  0
 44 40  1  0
 39 45  1  0
 46 36  1  0
 29 31  1  0
 32 36  1  0
 38 34  2  0
 35 33  1  0
 43 40  2  0
 48 47  1  0
 49 47  1  0
 50 48  2  0
 51 47  1  0
 52 51  1  0
 53 49  1  0
 54 62  1  0
 55 48  1  0
 49 56  1  0
 53 57  1  0
 47 58  1  1
 59 60  1  0
 60 51  1  0
 61 50  1  0
 62 58  1  0
 63 55  2  0
 64 63  1  0
 65 54  1  0
 60 66  1  0
 67 61  1  0
 68 67  1  0
 52 50  1  0
 53 54  1  0
 59 56  2  0
 57 55  1  0
 64 61  2  0
  3 69  1  0
  7 70  1  0
 10 71  1  0
 10 72  1  0
 12 73  1  0
 14 74  1  0
 15 75  1  0
 16 76  1  0
 21 77  1  0
 22 78  1  0
 22 79  1  0
 22 80  1  0
 23 81  1  0
 23 82  1  0
 23 83  1  0
 24 84  1  0
 24 85  1  0
 24 86  1  0
 25 87  1  0
 25 88  1  0
 25 89  1  0
 28 90  1  1
 30 91  1  1
 32 92  1  6
 34 93  1  0
 35 94  1  0
 35 95  1  0
 37 96  1  0
 37 97  1  0
 38 98  1  0
 39 99  1  1
 41100  1  0
 41101  1  0
 42102  1  0
 43103  1  0
 44104  1  0
 45105  1  0
 46106  1  0
 46107  1  0
 46108  1  0
 49109  1  1
 51110  1  1
 53111  1  6
 56112  1  0
 57113  1  0
 57114  1  0
 58115  1  0
 58116  1  0
 59117  1  0
 60118  1  1
 62119  1  0
 62120  1  0
 63121  1  0
 64122  1  0
 65123  1  0
 65124  1  0
 65125  1  0
 66126  1  0
 68127  1  0
 68128  1  0
 68129  1  0
M  END
> <Uni-Dock RESULT> 
ENERGY=   -5.851  LOWER_BOUND=    0.000  UPPER_BOUND=    0.000
INTER + INTRA:          -5.851
INTER:                  -5.851
INTRA:                   0.000
UNBOUND:                 0.000

$$$$

     RDKit          3D

129139  0  0  0  0  0  0  0  0999 V2000
   50.4248    5.7974   18.2199 C   0  0  0  0  0  0  0  0  0  0  0  0
   50.3532    7.1906   18.4838 C   0  0  0  0  0  0  0  0  0  0  0  0
   49.3093    4.9639   17.9543 C   0  0  0  0  0  0  0  0  0  0  0  0
   51.7058    5.2047   18.2232 C   0  0  0  0  0  0  0  0  0  0  0  0
   49.4549    3.5934   17.7046 C   0  0  0  0  0  0  0  0  0  0  0  0
   50.7370    3.0197   17.7172 C   0  0  0  0  0  0  0  0  0  0  0  0
   51.8482    3.8283   17.9738 C   0  0  0  0  0  0  0  0  0  0  0  0
   51.4567    7.9481   18.7230 N   0  0  0  0  0  0  0  0  0  0  0  0
   49.1714   11.7142   18.1654 C   0  0  0  0  0  0  0  0  0  0  0  0
   49.0091    7.9043   18.5014 C   0  0  0  0  0  0  0  0  0  0  0  0
   49.0553   12.1179   19.5104 C   0  0  0  0  0  0  0  0  0  0  0  0
   49.1559   10.3498   17.8478 C   0  0  0  0  0  0  0  0  0  0  0  0
   49.0251    9.3782   18.8527 C   0  0  0  0  0  0  0  0  0  0  0  0
   48.9379   11.1491   20.5121 C   0  0  0  0  0  0  0  0  0  0  0  0
   48.9272    9.7905   20.1860 C   0  0  0  0  0  0  0  0  0  0  0  0
   52.6569    7.3427   18.7156 C   0  0  0  0  0  0  0  0  0  0  0  0
   48.4149    2.7364   17.4418 O   0  0  0  0  0  0  0  0  0  0  0  0
   50.7972    1.6715   17.4659 O   0  0  0  0  0  0  0  0  0  0  0  0
   49.2847   12.7236   17.2398 O   0  0  0  0  0  0  0  0  0  0  0  0
   49.0694   13.4723   19.7387 O   0  0  0  0  0  0  0  0  0  0  0  0
   52.8302    5.9950   18.4758 C   0  0  0  0  0  0  0  0  0  0  0  0
   47.1007    3.2728   17.4051 C   0  0  0  0  0  0  0  0  0  0  0  0
   49.5755   12.3535   15.9003 C   0  0  0  0  0  0  0  0  0  0  0  0
   52.0715    1.0459   17.5021 C   0  0  0  0  0  0  0  0  0  0  0  0
   49.0283   13.9109   21.0885 C   0  0  0  0  0  0  0  0  0  0  0  0
   49.3485    7.8352   18.8052 C   0  0  2  0  0  0  0  0  0  0  0  0
   50.7654    8.2068   18.4824 C   0  0  0  0  0  0  0  0  0  0  0  0
   48.7823    7.0566   17.6101 C   0  0  2  0  0  0  0  0  0  0  0  0
   51.0545    9.4630   18.9609 C   0  0  0  0  0  0  0  0  0  0  0  0
   48.8308    9.2734   19.0549 C   0  0  1  0  0  0  0  0  0  0  0  0
   49.9693   10.0869   19.5139 O   0  0  0  0  0  0  0  0  0  0  0  0
   49.7347    5.8239   17.4081 C   0  0  1  0  0  0  0  0  0  0  0  0
   51.6667    7.4840   17.7175 C   0  0  0  0  0  0  0  0  0  0  0  0
   48.5971    7.9307   16.3913 C   0  0  0  0  0  0  0  0  0  0  0  0
   51.1797    6.2553   16.9949 C   0  0  0  0  0  0  0  0  0  0  0  0
   49.8684    4.9964   18.6375 N   0  0  0  0  0  0  0  0  0  0  0  0
   49.3253    6.9588   20.0816 C   0  0  0  0  0  0  0  0  0  0  0  0
   48.3117    9.2381   16.5022 C   0  0  0  0  0  0  0  0  0  0  0  0
   48.1077    9.9183   17.8307 C   0  0  2  0  0  0  0  0  0  0  0  0
   52.3105   10.0036   18.8054 C   0  0  0  0  0  0  0  0  0  0  0  0
   49.0896    5.4701   19.7794 C   0  0  0  0  0  0  0  0  0  0  0  0
   52.9486    8.0212   17.5535 C   0  0  0  0  0  0  0  0  0  0  0  0
   53.2756    9.2714   18.1171 C   0  0  0  0  0  0  0  0  0  0  0  0
   52.6044   11.2463   19.2745 O   0  0  0  0  0  0  0  0  0  0  0  0
   48.4143   11.3054   17.7161 O   0  0  0  0  0  0  0  0  0  0  0  0
   49.6279    3.5803   18.3752 C   0  0  0  0  0  0  0  0  0  0  0  0
   50.5295    8.2268   19.1560 C   0  0  2  0  0  0  0  0  0  0  0  0
   49.9252    7.1290   18.3425 C   0  0  0  0  0  0  0  0  0  0  0  0
   50.3858    9.5525   18.3953 C   0  0  2  0  0  0  0  0  0  0  0  0
   50.6637    5.9702   18.4544 C   0  0  0  0  0  0  0  0  0  0  0  0
   51.9424    7.6250   19.2883 C   0  0  1  0  0  0  0  0  0  0  0  0
   51.8111    6.1595   19.1885 O   0  0  0  0  0  0  0  0  0  0  0  0
   48.8543    9.7520   18.1420 C   0  0  2  0  0  0  0  0  0  0  0  0
   48.2197    9.9535   19.4732 N   0  0  0  0  0  0  0  0  0  0  0  0
   48.8313    7.2414   17.5060 C   0  0  0  0  0  0  0  0  0  0  0  0
   51.2527    9.6012   17.1601 C   0  0  0  0  0  0  0  0  0  0  0  0
   48.2394    8.6049   17.2634 C   0  0  0  0  0  0  0  0  0  0  0  0
   49.8021    8.3308   20.5115 C   0  0  0  0  0  0  0  0  0  0  0  0
   52.4224    8.9456   17.1008 C   0  0  0  0  0  0  0  0  0  0  0  0
   52.9750    8.1389   18.2410 C   0  0  2  0  0  0  0  0  0  0  0  0
   50.2752    4.8056   17.8175 C   0  0  0  0  0  0  0  0  0  0  0  0
   48.3447    8.7928   20.3629 C   0  0  0  0  0  0  0  0  0  0  0  0
   48.4173    6.0832   16.8488 C   0  0  0  0  0  0  0  0  0  0  0  0
   49.1227    4.8702   17.0198 C   0  0  0  0  0  0  0  0  0  0  0  0
   46.8335   10.4046   19.3874 C   0  0  0  0  0  0  0  0  0  0  0  0
   53.7514    7.0773   17.6868 O   0  0  0  0  0  0  0  0  0  0  0  0
   51.0688    3.7120   18.0040 O   0  0  0  0  0  0  0  0  0  0  0  0
   50.6699    2.5102   17.3600 C   0  0  0  0  0  0  0  0  0  0  0  0
   48.3194    5.4059   17.9452 H   0  0  0  0  0  0  0  0  0  0  0  0
   52.8473    3.4038   17.9835 H   0  0  0  0  0  0  0  0  0  0  0  0
   48.3508    7.3965   19.2186 H   0  0  0  0  0  0  0  0  0  0  0  0
   48.5412    7.7913   17.5144 H   0  0  0  0  0  0  0  0  0  0  0  0
   49.2492   10.0135   16.8204 H   0  0  0  0  0  0  0  0  0  0  0  0
   48.8565   11.4167   21.5597 H   0  0  0  0  0  0  0  0  0  0  0  0
   48.8499    9.0544   20.9830 H   0  0  0  0  0  0  0  0  0  0  0  0
   53.5043    7.9924   18.9145 H   0  0  0  0  0  0  0  0  0  0  0  0
   53.8308    5.5758   18.4867 H   0  0  0  0  0  0  0  0  0  0  0  0
   47.0016    4.0220   16.6127 H   0  0  0  0  0  0  0  0  0  0  0  0
   46.8154    3.6847   18.3785 H   0  0  0  0  0  0  0  0  0  0  0  0
   46.4114    2.4545   17.1759 H   0  0  0  0  0  0  0  0  0  0  0  0
   49.7133   13.2724   15.3222 H   0  0  0  0  0  0  0  0  0  0  0  0
   48.7401   11.8041   15.4544 H   0  0  0  0  0  0  0  0  0  0  0  0
   50.5064   11.7799   15.8381 H   0  0  0  0  0  0  0  0  0  0  0  0
   52.7292    1.4452   16.7233 H   0  0  0  0  0  0  0  0  0  0  0  0
   51.9269   -0.0197   17.2998 H   0  0  0  0  0  0  0  0  0  0  0  0
   52.5289    1.1364   18.4928 H   0  0  0  0  0  0  0  0  0  0  0  0
   48.0873   13.6230   21.5684 H   0  0  0  0  0  0  0  0  0  0  0  0
   49.8909   13.5409   21.6523 H   0  0  0  0  0  0  0  0  0  0  0  0
   49.0780   15.0040   21.0865 H   0  0  0  0  0  0  0  0  0  0  0  0
   47.7765    6.6812   17.8471 H   0  0  0  0  0  0  0  0  0  0  0  0
   48.1143    9.2873   19.8860 H   0  0  0  0  0  0  0  0  0  0  0  0
   49.3234    5.2129   16.5925 H   0  0  0  0  0  0  0  0  0  0  0  0
   48.6753    7.4752   15.4072 H   0  0  0  0  0  0  0  0  0  0  0  0
   51.8883    5.4303   17.1402 H   0  0  0  0  0  0  0  0  0  0  0  0
   51.1742    6.4826   15.9207 H   0  0  0  0  0  0  0  0  0  0  0  0
   50.2540    7.0668   20.6579 H   0  0  0  0  0  0  0  0  0  0  0  0
   48.5134    7.2798   20.7461 H   0  0  0  0  0  0  0  0  0  0  0  0
   48.1626    9.8199   15.5970 H   0  0  0  0  0  0  0  0  0  0  0  0
   47.0285    9.8644   18.0270 H   0  0  0  0  0  0  0  0  0  0  0  0
   48.0178    5.2980   19.6132 H   0  0  0  0  0  0  0  0  0  0  0  0
   49.3562    4.8972   20.6765 H   0  0  0  0  0  0  0  0  0  0  0  0
   53.6938    7.4923   16.9644 H   0  0  0  0  0  0  0  0  0  0  0  0
   54.2689    9.6878   17.9772 H   0  0  0  0  0  0  0  0  0  0  0  0
   51.7623   11.5885   19.6329 H   0  0  0  0  0  0  0  0  0  0  0  0
   47.9908   11.6444   16.9117 H   0  0  0  0  0  0  0  0  0  0  0  0
   48.5931    3.3921   18.0680 H   0  0  0  0  0  0  0  0  0  0  0  0
   49.8378    2.9798   19.2672 H   0  0  0  0  0  0  0  0  0  0  0  0
   50.2959    3.2144   17.5876 H   0  0  0  0  0  0  0  0  0  0  0  0
   50.7359   10.3810   19.0301 H   0  0  0  0  0  0  0  0  0  0  0  0
   52.3551    7.8218   20.2862 H   0  0  0  0  0  0  0  0  0  0  0  0
   48.7285   10.6913   17.5858 H   0  0  0  0  0  0  0  0  0  0  0  0
   50.9371   10.2184   16.3231 H   0  0  0  0  0  0  0  0  0  0  0  0
   47.1515    8.5588   17.3734 H   0  0  0  0  0  0  0  0  0  0  0  0
   48.4336    8.8574   16.2122 H   0  0  0  0  0  0  0  0  0  0  0  0
   50.3373    9.0510   21.1451 H   0  0  0  0  0  0  0  0  0  0  0  0
   49.8164    7.3735   21.0483 H   0  0  0  0  0  0  0  0  0  0  0  0
   53.0444    9.0312   16.2131 H   0  0  0  0  0  0  0  0  0  0  0  0
   53.6844    8.7945   18.7614 H   0  0  0  0  0  0  0  0  0  0  0  0
   47.9752    9.0563   21.3621 H   0  0  0  0  0  0  0  0  0  0  0  0
   47.7205    7.9603   20.0155 H   0  0  0  0  0  0  0  0  0  0  0  0
   47.5622    6.1103   16.1769 H   0  0  0  0  0  0  0  0  0  0  0  0
   48.7607    4.0003   16.4807 H   0  0  0  0  0  0  0  0  0  0  0  0
   46.4757   10.7137   20.3761 H   0  0  0  0  0  0  0  0  0  0  0  0
   46.1555    9.6308   19.0140 H   0  0  0  0  0  0  0  0  0  0  0  0
   46.7492   11.2832   18.7386 H   0  0  0  0  0  0  0  0  0  0  0  0
   53.2690    6.2516   17.8909 H   0  0  0  0  0  0  0  0  0  0  0  0
   50.6831    2.6234   16.2709 H   0  0  0  0  0  0  0  0  0  0  0  0
   51.3943    1.7334   17.6226 H   0  0  0  0  0  0  0  0  0  0  0  0
   49.6864    2.1806   17.7114 H   0  0  0  0  0  0  0  0  0  0  0  0
  2  1  1  0
  3  1  2  0
  4  1  1  0
  5  3  1  0
  6  7  1  0
  7  4  2  0
  8  2  2  0
  9 12  2  0
 10  2  1  0
 11 14  2  0
 12 13  1  0
 13 10  1  0
 14 15  1  0
 15 13  2  0
 16 21  2  0
 17  5  1  0
 18  6  1  0
 19  9  1  0
 20 11  1  0
 21  4  1  0
 22 17  1  0
 23 19  1  0
 24 18  1  0
 25 20  1  0
 16  8  1  0
  6  5  2  0
 11  9  1  0
 27 26  1  0
 28 26  1  0
 29 27  2  0
 30 26  1  0
 30 31  1  0
 32 28  1  0
 33 27  1  0
 28 34  1  0
 32 35  1  0
 36 41  1  0
 26 37  1  1
 38 39  1  0
 39 30  1  0
 40 29  1  0
 41 37  1  0
 42 33  2  0
 43 42  1  0
 44 40  1  0
 39 45  1  0
 46 36  1  0
 29 31  1  0
 32 36  1  0
 38 34  2  0
 35 33  1  0
 43 40  2  0
 48 47  1  0
 49 47  1  0
 50 48  2  0
 51 47  1  0
 52 51  1  0
 53 49  1  0
 54 62  1  0
 55 48  1  0
 49 56  1  0
 53 57  1  0
 47 58  1  1
 59 60  1  0
 60 51  1  0
 61 50  1  0
 62 58  1  0
 63 55  2  0
 64 63  1  0
 65 54  1  0
 60 66  1  0
 67 61  1  0
 68 67  1  0
 52 50  1  0
 53 54  1  0
 59 56  2  0
 57 55  1  0
 64 61  2  0
  3 69  1  0
  7 70  1  0
 10 71  1  0
 10 72  1  0
 12 73  1  0
 14 74  1  0
 15 75  1  0
 16 76  1  0
 21 77  1  0
 22 78  1  0
 22 79  1  0
 22 80  1  0
 23 81  1  0
 23 82  1  0
 23 83  1  0
 24 84  1  0
 24 85  1  0
 24 86  1  0
 25 87  1  0
 25 88  1  0
 25 89  1  0
 28 90  1  1
 30 91  1  1
 32 92  1  6
 34 93  1  0
 35 94  1  0
 35 95  1  0
 37 96  1  0
 37 97  1  0
 38 98  1  0
 39 99  1  1
 41100  1  0
 41101  1  0
 42102  1  0
 43103  1  0
 44104  1  0
 45105  1  0
 46106  1  0
 46107  1  0
 46108  1  0
 49109  1  1
 51110  1  1
 53111  1  6
 56112  1  0
 57113  1  0
 57114  1  0
 58115  1  0
 58116  1  0
 59117  1  0
 60118  1  1
 62119  1  0
 62120  1  0
 63121  1  0
 64122  1  0
 65123  1  0
 65124  1  0
 65125  1  0
 66126  1  0
 68127  1  0
 68128  1  0
 68129  1  0
M  END
> <Uni-Dock RESULT> 
ENERGY=   -5.413  LOWER_BOUND=    2.729  UPPER_BOUND=    4.938
INTER + INTRA:          -5.413
INTER:                  -5.413
INTRA:                   0.000
UNBOUND:                 0.000

$$$$

     RDKit          3D

129139  0  0  0  0  0  0  0  0999 V2000
   43.3985   12.1160   10.1242 C   0  0  0  0  0  0  0  0  0  0  0  0
   44.4595   12.9771    9.7390 C   0  0  0  0  0  0  0  0  0  0  0  0
   43.5372   10.7330   10.4033 C   0  0  0  0  0  0  0  0  0  0  0  0
   42.1124   12.6863   10.2363 C   0  0  0  0  0  0  0  0  0  0  0  0
   42.4429    9.9421   10.7763 C   0  0  0  0  0  0  0  0  0  0  0  0
   41.1693   10.5257   10.8776 C   0  0  0  0  0  0  0  0  0  0  0  0
   41.0158   11.8891   10.6093 C   0  0  0  0  0  0  0  0  0  0  0  0
   44.2747   14.3013    9.4920 N   0  0  0  0  0  0  0  0  0  0  0  0
   48.6442   15.0824    9.6095 C   0  0  0  0  0  0  0  0  0  0  0  0
   45.8755   12.4388    9.5925 C   0  0  0  0  0  0  0  0  0  0  0  0
   48.8907   15.2368    8.2308 C   0  0  0  0  0  0  0  0  0  0  0  0
   47.6673   14.1758   10.0413 C   0  0  0  0  0  0  0  0  0  0  0  0
   46.9305   13.4174    9.1177 C   0  0  0  0  0  0  0  0  0  0  0  0
   48.1474   14.4904    7.3108 C   0  0  0  0  0  0  0  0  0  0  0  0
   47.1725   13.5915    7.7509 C   0  0  0  0  0  0  0  0  0  0  0  0
   43.0333   14.8029    9.6118 C   0  0  0  0  0  0  0  0  0  0  0  0
   42.5140    8.6003   11.0584 O   0  0  0  0  0  0  0  0  0  0  0  0
   40.1481    9.6854   11.2458 O   0  0  0  0  0  0  0  0  0  0  0  0
   49.4131   15.8510   10.4500 O   0  0  0  0  0  0  0  0  0  0  0  0
   49.8698   16.1374    7.8886 O   0  0  0  0  0  0  0  0  0  0  0  0
   41.9369   14.0476    9.9743 C   0  0  0  0  0  0  0  0  0  0  0  0
   43.7833    7.9684   10.9827 C   0  0  0  0  0  0  0  0  0  0  0  0
   49.0761   15.8499   11.8292 C   0  0  0  0  0  0  0  0  0  0  0  0
   38.8386   10.2284   11.3277 C   0  0  0  0  0  0  0  0  0  0  0  0
   50.0925   16.3711    6.5059 C   0  0  0  0  0  0  0  0  0  0  0  0
   45.5708   12.6424    9.3133 C   0  0  2  0  0  0  0  0  0  0  0  0
   44.9465   13.9576    9.6743 C   0  0  0  0  0  0  0  0  0  0  0  0
   45.4793   11.7254   10.5403 C   0  0  2  0  0  0  0  0  0  0  0  0
   45.6467   14.9952    9.1055 C   0  0  0  0  0  0  0  0  0  0  0  0
   46.9605   13.1986    8.9157 C   0  0  1  0  0  0  0  0  0  0  0  0
   46.7730   14.5820    8.4470 O   0  0  0  0  0  0  0  0  0  0  0  0
   43.9520   11.6303   10.8948 C   0  0  1  0  0  0  0  0  0  0  0  0
   43.8881   14.1713   10.5428 C   0  0  0  0  0  0  0  0  0  0  0  0
   46.3724   12.1860   11.6691 C   0  0  0  0  0  0  0  0  0  0  0  0
   43.3625   13.0078   11.3422 C   0  0  0  0  0  0  0  0  0  0  0  0
   43.1265   11.1615    9.7489 N   0  0  0  0  0  0  0  0  0  0  0  0
   44.8076   12.0227    8.1169 C   0  0  0  0  0  0  0  0  0  0  0  0
   47.5251   12.8329   11.4326 C   0  0  0  0  0  0  0  0  0  0  0  0
   48.0374   13.1042   10.0422 C   0  0  2  0  0  0  0  0  0  0  0  0
   45.2381   16.2980    9.2775 C   0  0  0  0  0  0  0  0  0  0  0  0
   43.8815   10.8684    8.5328 C   0  0  0  0  0  0  0  0  0  0  0  0
   43.4608   15.4914   10.7249 C   0  0  0  0  0  0  0  0  0  0  0  0
   44.1234   16.5519   10.0738 C   0  0  0  0  0  0  0  0  0  0  0  0
   45.9261   17.3305    8.7194 O   0  0  0  0  0  0  0  0  0  0  0  0
   48.8817   14.2524   10.0532 O   0  0  0  0  0  0  0  0  0  0  0  0
   42.2539   10.0509   10.1188 C   0  0  0  0  0  0  0  0  0  0  0  0
   45.0509   13.7812    8.9904 C   0  0  2  0  0  0  0  0  0  0  0  0
   44.7092   12.6177    9.8631 C   0  0  0  0  0  0  0  0  0  0  0  0
   46.2091   14.5627    9.6268 C   0  0  2  0  0  0  0  0  0  0  0  0
   43.3473   12.4050    9.8881 C   0  0  0  0  0  0  0  0  0  0  0  0
   43.6586   14.4422    8.9816 C   0  0  1  0  0  0  0  0  0  0  0  0
   42.6613   13.3779    9.1995 O   0  0  0  0  0  0  0  0  0  0  0  0
   47.3912   13.5492    9.7844 C   0  0  2  0  0  0  0  0  0  0  0  0
   47.8297   13.1811    8.4105 N   0  0  0  0  0  0  0  0  0  0  0  0
   45.5951   11.8862   10.6306 C   0  0  0  0  0  0  0  0  0  0  0  0
   45.7949   15.2686   10.8956 C   0  0  0  0  0  0  0  0  0  0  0  0
   47.0260   12.3464   10.7256 C   0  0  0  0  0  0  0  0  0  0  0  0
   45.4755   13.2785    7.5960 C   0  0  0  0  0  0  0  0  0  0  0  0
   44.5412   15.7151   11.0697 C   0  0  0  0  0  0  0  0  0  0  0  0
   43.4641   15.5763   10.0321 C   0  0  2  0  0  0  0  0  0  0  0  0
   42.7962   11.3563   10.6018 C   0  0  0  0  0  0  0  0  0  0  0  0
   46.7945   12.4921    7.6306 C   0  0  0  0  0  0  0  0  0  0  0  0
   45.0676   10.8228   11.3626 C   0  0  0  0  0  0  0  0  0  0  0  0
   43.6813   10.5484   11.3317 C   0  0  0  0  0  0  0  0  0  0  0  0
   49.0875   12.4398    8.3872 C   0  0  0  0  0  0  0  0  0  0  0  0
   42.2148   15.4686   10.7135 O   0  0  0  0  0  0  0  0  0  0  0  0
   41.4394   11.2266   10.5497 O   0  0  0  0  0  0  0  0  0  0  0  0
   40.8682   10.1455   11.2731 C   0  0  0  0  0  0  0  0  0  0  0  0
   44.5197   10.2818   10.3245 H   0  0  0  0  0  0  0  0  0  0  0  0
   40.0401   12.3588   10.6864 H   0  0  0  0  0  0  0  0  0  0  0  0
   45.8602   11.5960    8.8890 H   0  0  0  0  0  0  0  0  0  0  0  0
   46.1956   12.0312   10.5606 H   0  0  0  0  0  0  0  0  0  0  0  0
   47.4552   14.0429   11.0970 H   0  0  0  0  0  0  0  0  0  0  0  0
   48.2986   14.5866    6.2414 H   0  0  0  0  0  0  0  0  0  0  0  0
   46.5964   13.0326    7.0168 H   0  0  0  0  0  0  0  0  0  0  0  0
   42.9405   15.8644    9.4012 H   0  0  0  0  0  0  0  0  0  0  0  0
   40.9640   14.5219   10.0499 H   0  0  0  0  0  0  0  0  0  0  0  0
   44.4849    8.4033   11.7021 H   0  0  0  0  0  0  0  0  0  0  0  0
   44.1837    8.0080    9.9644 H   0  0  0  0  0  0  0  0  0  0  0  0
   43.6491    6.9148   11.2457 H   0  0  0  0  0  0  0  0  0  0  0  0
   49.7274   16.5708   12.3329 H   0  0  0  0  0  0  0  0  0  0  0  0
   49.2598   14.8682   12.2776 H   0  0  0  0  0  0  0  0  0  0  0  0
   48.0411   16.1713   11.9872 H   0  0  0  0  0  0  0  0  0  0  0  0
   38.7794   11.0004   12.1018 H   0  0  0  0  0  0  0  0  0  0  0  0
   38.1585    9.4200   11.6127 H   0  0  0  0  0  0  0  0  0  0  0  0
   38.5083   10.6132   10.3572 H   0  0  0  0  0  0  0  0  0  0  0  0
   50.4505   15.4655    6.0054 H   0  0  0  0  0  0  0  0  0  0  0  0
   49.1933   16.7640    6.0202 H   0  0  0  0  0  0  0  0  0  0  0  0
   50.8756   17.1302    6.4170 H   0  0  0  0  0  0  0  0  0  0  0  0
   45.8384   10.7180   10.2858 H   0  0  0  0  0  0  0  0  0  0  0  0
   47.3617   12.6544    8.0514 H   0  0  0  0  0  0  0  0  0  0  0  0
   43.8464   10.9332   11.7378 H   0  0  0  0  0  0  0  0  0  0  0  0
   46.0770   11.9623   12.6912 H   0  0  0  0  0  0  0  0  0  0  0  0
   42.2661   12.9924   11.3039 H   0  0  0  0  0  0  0  0  0  0  0  0
   43.6405   13.1736   12.3913 H   0  0  0  0  0  0  0  0  0  0  0  0
   44.2204   12.7806    7.5811 H   0  0  0  0  0  0  0  0  0  0  0  0
   45.5171   11.6127    7.3872 H   0  0  0  0  0  0  0  0  0  0  0  0
   48.1456   13.1219   12.2760 H   0  0  0  0  0  0  0  0  0  0  0  0
   48.6887   12.2547    9.7970 H   0  0  0  0  0  0  0  0  0  0  0  0
   44.4751    9.9531    8.6587 H   0  0  0  0  0  0  0  0  0  0  0  0
   43.1909   10.6737    7.7027 H   0  0  0  0  0  0  0  0  0  0  0  0
   42.6328   15.7127   11.3940 H   0  0  0  0  0  0  0  0  0  0  0  0
   43.7935   17.5753   10.2276 H   0  0  0  0  0  0  0  0  0  0  0  0
   46.7010   16.9174    8.2910 H   0  0  0  0  0  0  0  0  0  0  0  0
   49.4919   14.1731   10.8033 H   0  0  0  0  0  0  0  0  0  0  0  0
   42.8249    9.1554   10.3883 H   0  0  0  0  0  0  0  0  0  0  0  0
   41.5805    9.7955    9.2931 H   0  0  0  0  0  0  0  0  0  0  0  0
   41.6177   10.3254   10.9676 H   0  0  0  0  0  0  0  0  0  0  0  0
   46.5348   15.3608    8.9421 H   0  0  0  0  0  0  0  0  0  0  0  0
   43.4363   14.8635    7.9927 H   0  0  0  0  0  0  0  0  0  0  0  0
   48.2292   14.0852   10.2512 H   0  0  0  0  0  0  0  0  0  0  0  0
   46.5450   15.4547   11.6598 H   0  0  0  0  0  0  0  0  0  0  0  0
   47.6972   11.4971   10.5650 H   0  0  0  0  0  0  0  0  0  0  0  0
   47.1890   12.6785   11.7598 H   0  0  0  0  0  0  0  0  0  0  0  0
   45.5986   14.1442    6.9310 H   0  0  0  0  0  0  0  0  0  0  0  0
   44.6993   12.6473    7.1443 H   0  0  0  0  0  0  0  0  0  0  0  0
   44.2821   16.2551   11.9772 H   0  0  0  0  0  0  0  0  0  0  0  0
   43.4354   16.5321    9.4940 H   0  0  0  0  0  0  0  0  0  0  0  0
   47.1370   12.3701    6.5952 H   0  0  0  0  0  0  0  0  0  0  0  0
   46.6182   11.4802    8.0159 H   0  0  0  0  0  0  0  0  0  0  0  0
   45.7164   10.2111   11.9856 H   0  0  0  0  0  0  0  0  0  0  0  0
   43.3232    9.7122   11.9242 H   0  0  0  0  0  0  0  0  0  0  0  0
   49.4574   12.3568    7.3589 H   0  0  0  0  0  0  0  0  0  0  0  0
   48.9931   11.4267    8.7906 H   0  0  0  0  0  0  0  0  0  0  0  0
   49.8619   12.9686    8.9535 H   0  0  0  0  0  0  0  0  0  0  0  0
   41.8964   14.5574   10.5566 H   0  0  0  0  0  0  0  0  0  0  0  0
   41.0501   10.2504   12.3478 H   0  0  0  0  0  0  0  0  0  0  0  0
   39.7858   10.1717   11.1148 H   0  0  0  0  0  0  0  0  0  0  0  0
   41.2357    9.1830   10.9018 H   0  0  0  0  0  0  0  0  0  0  0  0
  2  1  1  0
  3  1  2  0
  4  1  1  0
  5  3  1  0
  6  7  1  0
  7  4  2  0
  8  2  2  0
  9 12  2  0
 10  2  1  0
 11 14  2  0
 12 13  1  0
 13 10  1  0
 14 15  1  0
 15 13  2  0
 16 21  2  0
 17  5  1  0
 18  6  1  0
 19  9  1  0
 20 11  1  0
 21  4  1  0
 22 17  1  0
 23 19  1  0
 24 18  1  0
 25 20  1  0
 16  8  1  0
  6  5  2  0
 11  9  1  0
 27 26  1  0
 28 26  1  0
 29 27  2  0
 30 26  1  0
 30 31  1  0
 32 28  1  0
 33 27  1  0
 28 34  1  0
 32 35  1  0
 36 41  1  0
 26 37  1  1
 38 39  1  0
 39 30  1  0
 40 29  1  0
 41 37  1  0
 42 33  2  0
 43 42  1  0
 44 40  1  0
 39 45  1  0
 46 36  1  0
 29 31  1  0
 32 36  1  0
 38 34  2  0
 35 33  1  0
 43 40  2  0
 48 47  1  0
 49 47  1  0
 50 48  2  0
 51 47  1  0
 52 51  1  0
 53 49  1  0
 54 62  1  0
 55 48  1  0
 49 56  1  0
 53 57  1  0
 47 58  1  1
 59 60  1  0
 60 51  1  0
 61 50  1  0
 62 58  1  0
 63 55  2  0
 64 63  1  0
 65 54  1  0
 60 66  1  0
 67 61  1  0
 68 67  1  0
 52 50  1  0
 53 54  1  0
 59 56  2  0
 57 55  1  0
 64 61  2  0
  3 69  1  0
  7 70  1  0
 10 71  1  0
 10 72  1  0
 12 73  1  0
 14 74  1  0
 15 75  1  0
 16 76  1  0
 21 77  1  0
 22 78  1  0
 22 79  1  0
 22 80  1  0
 23 81  1  0
 23 82  1  0
 23 83  1  0
 24 84  1  0
 24 85  1  0
 24 86  1  0
 25 87  1  0
 25 88  1  0
 25 89  1  0
 28 90  1  1
 30 91  1  1
 32 92  1  6
 34 93  1  0
 35 94  1  0
 35 95  1  0
 37 96  1  0
 37 97  1  0
 38 98  1  0
 39 99  1  1
 41100  1  0
 41101  1  0
 42102  1  0
 43103  1  0
 44104  1  0
 45105  1  0
 46106  1  0
 46107  1  0
 46108  1  0
 49109  1  1
 51110  1  1
 53111  1  6
 56112  1  0
 57113  1  0
 57114  1  0
 58115  1  0
 58116  1  0
 59117  1  0
 60118  1  1
 62119  1  0
 62120  1  0
 63121  1  0
 64122  1  0
 65123  1  0
 65124  1  0
 65125  1  0
 66126  1  0
 68127  1  0
 68128  1  0
 68129  1  0
M  END
> <Uni-Dock RESULT> 
ENERGY=   -5.388  LOWER_BOUND=    7.521  UPPER_BOUND=    9.494
INTER + INTRA:          -5.388
INTER:                  -5.388
INTRA:                   0.000
UNBOUND:                 0.000

$$$$

     RDKit          3D

129139  0  0  0  0  0  0  0  0999 V2000
   47.4851   10.7446   12.2411 C   0  0  0  0  0  0  0  0  0  0  0  0
   48.6915   10.3085   12.8493 C   0  0  0  0  0  0  0  0  0  0  0  0
   47.3488   11.9210   11.4618 C   0  0  0  0  0  0  0  0  0  0  0  0
   46.3398    9.9417   12.4301 C   0  0  0  0  0  0  0  0  0  0  0  0
   46.1236   12.2917   10.8930 C   0  0  0  0  0  0  0  0  0  0  0  0
   44.9932   11.4832   11.0962 C   0  0  0  0  0  0  0  0  0  0  0  0
   45.1111   10.3177   11.8592 C   0  0  0  0  0  0  0  0  0  0  0  0
   48.7712    9.1647   13.5800 N   0  0  0  0  0  0  0  0  0  0  0  0
   53.2099    9.2384   13.4821 C   0  0  0  0  0  0  0  0  0  0  0  0
   49.9700   11.1198   12.6958 C   0  0  0  0  0  0  0  0  0  0  0  0
   53.4653    9.6624   14.8014 C   0  0  0  0  0  0  0  0  0  0  0  0
   52.0773    9.7142   12.8085 C   0  0  0  0  0  0  0  0  0  0  0  0
   51.1929   10.6096   13.4308 C   0  0  0  0  0  0  0  0  0  0  0  0
   52.5769   10.5442   15.4251 C   0  0  0  0  0  0  0  0  0  0  0  0
   51.4480   11.0104   14.7466 C   0  0  0  0  0  0  0  0  0  0  0  0
   47.6561    8.4298   13.7336 C   0  0  0  0  0  0  0  0  0  0  0  0
   45.9295   13.4168   10.1305 O   0  0  0  0  0  0  0  0  0  0  0  0
   43.8297   11.9143   10.5089 O   0  0  0  0  0  0  0  0  0  0  0  0
   54.1267    8.3710   12.9386 O   0  0  0  0  0  0  0  0  0  0  0  0
   54.5999    9.1588   15.3896 O   0  0  0  0  0  0  0  0  0  0  0  0
   46.4358    8.7716   13.1878 C   0  0  0  0  0  0  0  0  0  0  0  0
   47.0465   14.2587    9.8861 C   0  0  0  0  0  0  0  0  0  0  0  0
   53.8131    7.7906   11.6814 C   0  0  0  0  0  0  0  0  0  0  0  0
   42.6557   11.1431   10.7173 C   0  0  0  0  0  0  0  0  0  0  0  0
   54.8476    9.5078   16.7433 C   0  0  0  0  0  0  0  0  0  0  0  0
   49.7086   10.9822   13.0493 C   0  0  2  0  0  0  0  0  0  0  0  0
   49.3632    9.5352   13.2410 C   0  0  0  0  0  0  0  0  0  0  0  0
   49.4513   11.3365   11.5784 C   0  0  2  0  0  0  0  0  0  0  0  0
   50.2491    8.9397   14.1077 C   0  0  0  0  0  0  0  0  0  0  0  0
   51.1762   10.8896   13.5351 C   0  0  1  0  0  0  0  0  0  0  0  0
   51.2623    9.7747   14.4934 O   0  0  0  0  0  0  0  0  0  0  0  0
   47.9401   11.0008   11.3119 C   0  0  1  0  0  0  0  0  0  0  0  0
   48.3794    8.8152   12.5826 C   0  0  0  0  0  0  0  0  0  0  0  0
   50.4320   10.6638   10.6459 C   0  0  0  0  0  0  0  0  0  0  0  0
   47.6424    9.4715   11.4445 C   0  0  0  0  0  0  0  0  0  0  0  0
   47.0238   11.7000   12.2530 N   0  0  0  0  0  0  0  0  0  0  0  0
   48.8226   11.8492   13.9773 C   0  0  0  0  0  0  0  0  0  0  0  0
   51.6875   10.3837   11.0312 C   0  0  0  0  0  0  0  0  0  0  0  0
   52.2265   10.7562   12.3877 C   0  0  2  0  0  0  0  0  0  0  0  0
   50.1103    7.6156   14.4564 C   0  0  0  0  0  0  0  0  0  0  0  0
   47.6903   12.5653   13.2236 C   0  0  0  0  0  0  0  0  0  0  0  0
   48.2259    7.4681   12.9295 C   0  0  0  0  0  0  0  0  0  0  0  0
   49.0784    6.8755   13.8833 C   0  0  0  0  0  0  0  0  0  0  0  0
   50.9834    7.0183   15.3119 O   0  0  0  0  0  0  0  0  0  0  0  0
   53.2826    9.8700   12.7486 O   0  0  0  0  0  0  0  0  0  0  0  0
   45.9520   12.4040   11.5547 C   0  0  0  0  0  0  0  0  0  0  0  0
   49.4221    9.9717   13.8030 C   0  0  2  0  0  0  0  0  0  0  0  0
   48.8662   10.6353   12.5854 C   0  0  0  0  0  0  0  0  0  0  0  0
   50.7204    9.2429   13.4287 C   0  0  2  0  0  0  0  0  0  0  0  0
   47.4895   10.5612   12.5701 C   0  0  0  0  0  0  0  0  0  0  0  0
   48.1894    9.1118   14.1443 C   0  0  1  0  0  0  0  0  0  0  0  0
   47.0027    9.8071   13.6120 O   0  0  0  0  0  0  0  0  0  0  0  0
   51.6788   10.3269   12.8324 C   0  0  2  0  0  0  0  0  0  0  0  0
   52.0183   11.2595   13.9416 N   0  0  0  0  0  0  0  0  0  0  0  0
   49.5979   11.1786   11.5469 C   0  0  0  0  0  0  0  0  0  0  0  0
   50.4708    8.0478   12.5404 C   0  0  0  0  0  0  0  0  0  0  0  0
   51.0928   10.9960   11.5382 C   0  0  0  0  0  0  0  0  0  0  0  0
   49.7208   11.0315   14.8824 C   0  0  0  0  0  0  0  0  0  0  0  0
   49.3334    7.3401   12.6239 C   0  0  0  0  0  0  0  0  0  0  0  0
   48.2376    7.6517   13.6028 C   0  0  2  0  0  0  0  0  0  0  0  0
   46.7494   11.1408   11.5556 C   0  0  0  0  0  0  0  0  0  0  0  0
   50.8571   11.9816   14.4753 C   0  0  0  0  0  0  0  0  0  0  0  0
   48.8782   11.7690   10.5085 C   0  0  0  0  0  0  0  0  0  0  0  0
   47.4647   11.7674   10.5238 C   0  0  0  0  0  0  0  0  0  0  0  0
   53.1028   12.1789   13.6088 C   0  0  0  0  0  0  0  0  0  0  0  0
   47.0002    7.2574   13.0109 O   0  0  0  0  0  0  0  0  0  0  0  0
   45.3934   11.0213   11.6422 O   0  0  0  0  0  0  0  0  0  0  0  0
   44.6272   11.6228   10.6081 C   0  0  0  0  0  0  0  0  0  0  0  0
   48.2208   12.5459   11.3053 H   0  0  0  0  0  0  0  0  0  0  0  0
   44.2495    9.6779   12.0236 H   0  0  0  0  0  0  0  0  0  0  0  0
   49.7785   12.1457   13.0369 H   0  0  0  0  0  0  0  0  0  0  0  0
   50.2144   11.1869   11.6273 H   0  0  0  0  0  0  0  0  0  0  0  0
   51.8560    9.3985   11.7944 H   0  0  0  0  0  0  0  0  0  0  0  0
   52.7311   10.8870   16.4422 H   0  0  0  0  0  0  0  0  0  0  0  0
   50.7631   11.6840   15.2568 H   0  0  0  0  0  0  0  0  0  0  0  0
   47.7742    7.5280   14.3275 H   0  0  0  0  0  0  0  0  0  0  0  0
   45.5780    8.1288   13.3552 H   0  0  0  0  0  0  0  0  0  0  0  0
   47.8294   13.7269    9.3356 H   0  0  0  0  0  0  0  0  0  0  0  0
   47.4341   14.6807   10.8191 H   0  0  0  0  0  0  0  0  0  0  0  0
   46.7082   15.0906    9.2609 H   0  0  0  0  0  0  0  0  0  0  0  0
   54.6012    7.0707   11.4399 H   0  0  0  0  0  0  0  0  0  0  0  0
   53.8031    8.5479   10.8908 H   0  0  0  0  0  0  0  0  0  0  0  0
   52.8650    7.2440   11.7198 H   0  0  0  0  0  0  0  0  0  0  0  0
   42.7609   10.1409   10.2893 H   0  0  0  0  0  0  0  0  0  0  0  0
   41.8316   11.6410   10.1972 H   0  0  0  0  0  0  0  0  0  0  0  0
   42.3968   11.0956   11.7801 H   0  0  0  0  0  0  0  0  0  0  0  0
   55.0120   10.5851   16.8493 H   0  0  0  0  0  0  0  0  0  0  0  0
   54.0389    9.1634   17.3962 H   0  0  0  0  0  0  0  0  0  0  0  0
   55.7651    9.0005   17.0568 H   0  0  0  0  0  0  0  0  0  0  0  0
   49.5993   12.4141   11.4187 H   0  0  0  0  0  0  0  0  0  0  0  0
   51.4503   11.7837   14.1093 H   0  0  0  0  0  0  0  0  0  0  0  0
   47.7081   11.2970   10.2794 H   0  0  0  0  0  0  0  0  0  0  0  0
   50.1105   10.4274    9.6346 H   0  0  0  0  0  0  0  0  0  0  0  0
   46.5646    9.2924   11.5441 H   0  0  0  0  0  0  0  0  0  0  0  0
   47.9607    8.9799   10.5158 H   0  0  0  0  0  0  0  0  0  0  0  0
   48.3917   11.2514   14.7917 H   0  0  0  0  0  0  0  0  0  0  0  0
   49.4272   12.6293   14.4568 H   0  0  0  0  0  0  0  0  0  0  0  0
   52.3634    9.9223   10.3169 H   0  0  0  0  0  0  0  0  0  0  0  0
   52.6924   11.7423   12.2591 H   0  0  0  0  0  0  0  0  0  0  0  0
   48.0912   13.4609   12.7304 H   0  0  0  0  0  0  0  0  0  0  0  0
   46.9646   12.9229   13.9649 H   0  0  0  0  0  0  0  0  0  0  0  0
   47.4669    6.8595   12.4440 H   0  0  0  0  0  0  0  0  0  0  0  0
   48.9609    5.8268   14.1404 H   0  0  0  0  0  0  0  0  0  0  0  0
   51.6551    7.7005   15.5068 H   0  0  0  0  0  0  0  0  0  0  0  0
   53.8740    9.7759   11.9852 H   0  0  0  0  0  0  0  0  0  0  0  0
   46.3364   13.2234   10.9372 H   0  0  0  0  0  0  0  0  0  0  0  0
   45.2312   12.8182   12.2683 H   0  0  0  0  0  0  0  0  0  0  0  0
   45.3938   11.7160   10.9101 H   0  0  0  0  0  0  0  0  0  0  0  0
   51.1901    8.8372   14.3379 H   0  0  0  0  0  0  0  0  0  0  0  0
   48.0433    9.0586   15.2310 H   0  0  0  0  0  0  0  0  0  0  0  0
   52.6125    9.8239   12.5447 H   0  0  0  0  0  0  0  0  0  0  0  0
   51.2522    7.7340   11.8532 H   0  0  0  0  0  0  0  0  0  0  0  0
   51.5794   11.9539   11.3300 H   0  0  0  0  0  0  0  0  0  0  0  0
   51.3314   10.3374   10.6922 H   0  0  0  0  0  0  0  0  0  0  0  0
   50.0057   10.5188   15.8112 H   0  0  0  0  0  0  0  0  0  0  0  0
   48.8290   11.6269   15.1168 H   0  0  0  0  0  0  0  0  0  0  0  0
   49.1982    6.4605   11.9992 H   0  0  0  0  0  0  0  0  0  0  0  0
   48.3932    6.9809   14.4570 H   0  0  0  0  0  0  0  0  0  0  0  0
   51.1556   12.5456   15.3680 H   0  0  0  0  0  0  0  0  0  0  0  0
   50.4875   12.7218   13.7550 H   0  0  0  0  0  0  0  0  0  0  0  0
   49.3997   12.2130    9.6634 H   0  0  0  0  0  0  0  0  0  0  0  0
   46.9545   12.2360    9.6881 H   0  0  0  0  0  0  0  0  0  0  0  0
   53.4361   12.7101   14.5076 H   0  0  0  0  0  0  0  0  0  0  0  0
   52.8134   12.9289   12.8660 H   0  0  0  0  0  0  0  0  0  0  0  0
   53.9739   11.6330   13.2304 H   0  0  0  0  0  0  0  0  0  0  0  0
   46.5048    8.0829   12.8394 H   0  0  0  0  0  0  0  0  0  0  0  0
   44.8396   11.1587    9.6392 H   0  0  0  0  0  0  0  0  0  0  0  0
   43.5699   11.4537   10.8334 H   0  0  0  0  0  0  0  0  0  0  0  0
   44.7910   12.7050   10.5726 H   0  0  0  0  0  0  0  0  0  0  0  0
  2  1  1  0
  3  1  2  0
  4  1  1  0
  5  3  1  0
  6  7  1  0
  7  4  2  0
  8  2  2  0
  9 12  2  0
 10  2  1  0
 11 14  2  0
 12 13  1  0
 13 10  1  0
 14 15  1  0
 15 13  2  0
 16 21  2  0
 17  5  1  0
 18  6  1  0
 19  9  1  0
 20 11  1  0
 21  4  1  0
 22 17  1  0
 23 19  1  0
 24 18  1  0
 25 20  1  0
 16  8  1  0
  6  5  2  0
 11  9  1  0
 27 26  1  0
 28 26  1  0
 29 27  2  0
 30 26  1  0
 30 31  1  0
 32 28  1  0
 33 27  1  0
 28 34  1  0
 32 35  1  0
 36 41  1  0
 26 37  1  1
 38 39  1  0
 39 30  1  0
 40 29  1  0
 41 37  1  0
 42 33  2  0
 43 42  1  0
 44 40  1  0
 39 45  1  0
 46 36  1  0
 29 31  1  0
 32 36  1  0
 38 34  2  0
 35 33  1  0
 43 40  2  0
 48 47  1  0
 49 47  1  0
 50 48  2  0
 51 47  1  0
 52 51  1  0
 53 49  1  0
 54 62  1  0
 55 48  1  0
 49 56  1  0
 53 57  1  0
 47 58  1  1
 59 60  1  0
 60 51  1  0
 61 50  1  0
 62 58  1  0
 63 55  2  0
 64 63  1  0
 65 54  1  0
 60 66  1  0
 67 61  1  0
 68 67  1  0
 52 50  1  0
 53 54  1  0
 59 56  2  0
 57 55  1  0
 64 61  2  0
  3 69  1  0
  7 70  1  0
 10 71  1  0
 10 72  1  0
 12 73  1  0
 14 74  1  0
 15 75  1  0
 16 76  1  0
 21 77  1  0
 22 78  1  0
 22 79  1  0
 22 80  1  0
 23 81  1  0
 23 82  1  0
 23 83  1  0
 24 84  1  0
 24 85  1  0
 24 86  1  0
 25 87  1  0
 25 88  1  0
 25 89  1  0
 28 90  1  1
 30 91  1  1
 32 92  1  6
 34 93  1  0
 35 94  1  0
 35 95  1  0
 37 96  1  0
 37 97  1  0
 38 98  1  0
 39 99  1  1
 41100  1  0
 41101  1  0
 42102  1  0
 43103  1  0
 44104  1  0
 45105  1  0
 46106  1  0
 46107  1  0
 46108  1  0
 49109  1  1
 51110  1  1
 53111  1  6
 56112  1  0
 57113  1  0
 57114  1  0
 58115  1  0
 58116  1  0
 59117  1  0
 60118  1  1
 62119  1  0
 62120  1  0
 63121  1  0
 64122  1  0
 65123  1  0
 65124  1  0
 65125  1  0
 66126  1  0
 68127  1  0
 68128  1  0
 68129  1  0
M  END
> <Uni-Dock RESULT> 
ENERGY=   -4.997  LOWER_BOUND=    3.180  UPPER_BOUND=    6.680
INTER + INTRA:          -4.997
INTER:                  -4.997
INTRA:                   0.000
UNBOUND:                 0.000

$$$$

     RDKit          3D

129139  0  0  0  0  0  0  0  0999 V2000
   43.9334   11.6515   10.7793 C   0  0  0  0  0  0  0  0  0  0  0  0
   42.8482   12.3437   10.1803 C   0  0  0  0  0  0  0  0  0  0  0  0
   45.2046   12.2167   11.0516 C   0  0  0  0  0  0  0  0  0  0  0  0
   43.7236   10.2999   11.1277 C   0  0  0  0  0  0  0  0  0  0  0  0
   46.2322   11.4714   11.6437 C   0  0  0  0  0  0  0  0  0  0  0  0
   46.0071   10.1261   11.9789 C   0  0  0  0  0  0  0  0  0  0  0  0
   44.7579    9.5542   11.7204 C   0  0  0  0  0  0  0  0  0  0  0  0
   41.6435   11.7570    9.9496 N   0  0  0  0  0  0  0  0  0  0  0  0
   39.7094   15.6840    9.2048 C   0  0  0  0  0  0  0  0  0  0  0  0
   42.9947   13.8026    9.7724 C   0  0  0  0  0  0  0  0  0  0  0  0
   39.5927   15.6242    7.8019 C   0  0  0  0  0  0  0  0  0  0  0  0
   40.8124   15.0922    9.8341 C   0  0  0  0  0  0  0  0  0  0  0  0
   41.8046   14.4403    9.0846 C   0  0  0  0  0  0  0  0  0  0  0  0
   40.5749   14.9636    7.0570 C   0  0  0  0  0  0  0  0  0  0  0  0
   41.6693   14.3730    7.6938 C   0  0  0  0  0  0  0  0  0  0  0  0
   41.4872   10.4681   10.2982 C   0  0  0  0  0  0  0  0  0  0  0  0
   47.4818   11.9621   11.9312 O   0  0  0  0  0  0  0  0  0  0  0  0
   47.0628    9.4626   12.5531 O   0  0  0  0  0  0  0  0  0  0  0  0
   38.7046   16.3481    9.8664 O   0  0  0  0  0  0  0  0  0  0  0  0
   38.4885   16.2359    7.2602 O   0  0  0  0  0  0  0  0  0  0  0  0
   42.4819    9.7090   10.8799 C   0  0  0  0  0  0  0  0  0  0  0  0
   47.7527   13.3214   11.6228 C   0  0  0  0  0  0  0  0  0  0  0  0
   38.6984   16.2801   11.2846 C   0  0  0  0  0  0  0  0  0  0  0  0
   46.8877    8.0911   12.8770 C   0  0  0  0  0  0  0  0  0  0  0  0
   38.3024   16.1309    5.8566 C   0  0  0  0  0  0  0  0  0  0  0  0
   42.9009   13.4081    9.5538 C   0  0  2  0  0  0  0  0  0  0  0  0
   41.7800   12.5192   10.0047 C   0  0  0  0  0  0  0  0  0  0  0  0
   43.7192   13.7984   10.7919 C   0  0  2  0  0  0  0  0  0  0  0  0
   40.6354   12.7888    9.2922 C   0  0  0  0  0  0  0  0  0  0  0  0
   42.0210   14.4928    8.8847 C   0  0  1  0  0  0  0  0  0  0  0  0
   40.7760   13.8470    8.4359 O   0  0  0  0  0  0  0  0  0  0  0  0
   44.1963   12.4479   11.4370 C   0  0  1  0  0  0  0  0  0  0  0  0
   41.7978   11.6185   11.0575 C   0  0  0  0  0  0  0  0  0  0  0  0
   42.9564   14.7174   11.7178 C   0  0  0  0  0  0  0  0  0  0  0  0
   43.0000   11.5904   11.9647 C   0  0  0  0  0  0  0  0  0  0  0  0
   44.9500   11.5919   10.4813 N   0  0  0  0  0  0  0  0  0  0  0  0
   43.7865   12.6435    8.5393 C   0  0  0  0  0  0  0  0  0  0  0  0
   42.0417   15.5825   11.2509 C   0  0  0  0  0  0  0  0  0  0  0  0
   41.7420   15.7389    9.7829 C   0  0  2  0  0  0  0  0  0  0  0  0
   39.4817   12.0727    9.5162 C   0  0  0  0  0  0  0  0  0  0  0  0
   45.1148   12.1655    9.1477 C   0  0  0  0  0  0  0  0  0  0  0  0
   40.6318   10.8818   11.2947 C   0  0  0  0  0  0  0  0  0  0  0  0
   39.4812   11.0946   10.5084 C   0  0  0  0  0  0  0  0  0  0  0  0
   38.3445   12.3342    8.8167 O   0  0  0  0  0  0  0  0  0  0  0  0
   40.4113   16.2187    9.6093 O   0  0  0  0  0  0  0  0  0  0  0  0
   46.2253   11.1439   11.0334 C   0  0  0  0  0  0  0  0  0  0  0  0
   41.9699   12.5430    9.3168 C   0  0  2  0  0  0  0  0  0  0  0  0
   43.1174   12.7015   10.2603 C   0  0  0  0  0  0  0  0  0  0  0  0
   40.8625   13.5339    9.7026 C   0  0  2  0  0  0  0  0  0  0  0  0
   43.6863   11.4801   10.5524 C   0  0  0  0  0  0  0  0  0  0  0  0
   41.7101   11.0442    9.5656 C   0  0  1  0  0  0  0  0  0  0  0  0
   42.9853   10.4382    9.9919 O   0  0  0  0  0  0  0  0  0  0  0  0
   41.5067   14.9591    9.6470 C   0  0  2  0  0  0  0  0  0  0  0  0
   41.8399   15.2263    8.2211 N   0  0  0  0  0  0  0  0  0  0  0  0
   43.5273   13.8793   10.8551 C   0  0  0  0  0  0  0  0  0  0  0  0
   40.2058   13.1768   11.0144 C   0  0  0  0  0  0  0  0  0  0  0  0
   42.6935   15.1188   10.6629 C   0  0  0  0  0  0  0  0  0  0  0  0
   42.4375   12.8307    7.8760 C   0  0  0  0  0  0  0  0  0  0  0  0
   40.1019   11.9015   11.4198 C   0  0  0  0  0  0  0  0  0  0  0  0
   40.5986   10.7360   10.6129 C   0  0  2  0  0  0  0  0  0  0  0  0
   44.7912   11.3806   11.3783 C   0  0  0  0  0  0  0  0  0  0  0  0
   42.8356   14.2998    7.6691 C   0  0  0  0  0  0  0  0  0  0  0  0
   44.6386   13.8094   11.6947 C   0  0  0  0  0  0  0  0  0  0  0  0
   45.2773   12.5720   11.9377 C   0  0  0  0  0  0  0  0  0  0  0  0
   42.2152   16.6147    7.9684 C   0  0  0  0  0  0  0  0  0  0  0  0
   40.9898    9.7105   11.5252 O   0  0  0  0  0  0  0  0  0  0  0  0
   45.2845   10.1270   11.5922 O   0  0  0  0  0  0  0  0  0  0  0  0
   46.4252   10.0191   12.4321 C   0  0  0  0  0  0  0  0  0  0  0  0
   45.3793   13.2548   10.7924 H   0  0  0  0  0  0  0  0  0  0  0  0
   44.5637    8.5172   11.9764 H   0  0  0  0  0  0  0  0  0  0  0  0
   43.8583   13.8948    9.1007 H   0  0  0  0  0  0  0  0  0  0  0  0
   43.2313   14.3930   10.6675 H   0  0  0  0  0  0  0  0  0  0  0  0
   40.9222   15.1200   10.9131 H   0  0  0  0  0  0  0  0  0  0  0  0
   40.5178   14.8860    5.9770 H   0  0  0  0  0  0  0  0  0  0  0  0
   42.4132   13.8518    7.0955 H   0  0  0  0  0  0  0  0  0  0  0  0
   40.5075   10.0478   10.0901 H   0  0  0  0  0  0  0  0  0  0  0  0
   42.2826    8.6731   11.1336 H   0  0  0  0  0  0  0  0  0  0  0  0
   47.0952   13.9928   12.1848 H   0  0  0  0  0  0  0  0  0  0  0  0
   47.6793   13.5038   10.5457 H   0  0  0  0  0  0  0  0  0  0  0  0
   48.7821   13.5348   11.9261 H   0  0  0  0  0  0  0  0  0  0  0  0
   37.7951   16.7856   11.6394 H   0  0  0  0  0  0  0  0  0  0  0  0
   39.5601   16.8071   11.7068 H   0  0  0  0  0  0  0  0  0  0  0  0
   38.6570   15.2429   11.6339 H   0  0  0  0  0  0  0  0  0  0  0  0
   46.1072    7.9610   13.6336 H   0  0  0  0  0  0  0  0  0  0  0  0
   47.8269    7.7254   13.3030 H   0  0  0  0  0  0  0  0  0  0  0  0
   46.6758    7.4970   11.9819 H   0  0  0  0  0  0  0  0  0  0  0  0
   39.1114   16.6295    5.3128 H   0  0  0  0  0  0  0  0  0  0  0  0
   38.2013   15.0855    5.5469 H   0  0  0  0  0  0  0  0  0  0  0  0
   37.3689   16.6429    5.6039 H   0  0  0  0  0  0  0  0  0  0  0  0
   44.6084   14.3708   10.4911 H   0  0  0  0  0  0  0  0  0  0  0  0
   42.4972   14.8660    7.9691 H   0  0  0  0  0  0  0  0  0  0  0  0
   44.8344   12.6944   12.2971 H   0  0  0  0  0  0  0  0  0  0  0  0
   43.1782   14.6858   12.7817 H   0  0  0  0  0  0  0  0  0  0  0  0
   43.3124   10.5533   12.1397 H   0  0  0  0  0  0  0  0  0  0  0  0
   42.6915   11.9965   12.9370 H   0  0  0  0  0  0  0  0  0  0  0  0
   43.2545   11.7821    8.1135 H   0  0  0  0  0  0  0  0  0  0  0  0
   44.0412   13.2947    7.6937 H   0  0  0  0  0  0  0  0  0  0  0  0
   41.5373   16.2404   11.9529 H   0  0  0  0  0  0  0  0  0  0  0  0
   42.4002   16.5449    9.4318 H   0  0  0  0  0  0  0  0  0  0  0  0
   45.8253   13.0025    9.1730 H   0  0  0  0  0  0  0  0  0  0  0  0
   45.5465   11.4177    8.4705 H   0  0  0  0  0  0  0  0  0  0  0  0
   40.5945   10.1603   12.1073 H   0  0  0  0  0  0  0  0  0  0  0  0
   38.5760   10.5271   10.7044 H   0  0  0  0  0  0  0  0  0  0  0  0
   38.5632   13.1025    8.2540 H   0  0  0  0  0  0  0  0  0  0  0  0
   40.2700   16.9523   10.2284 H   0  0  0  0  0  0  0  0  0  0  0  0
   46.9127   11.9800   11.2036 H   0  0  0  0  0  0  0  0  0  0  0  0
   46.7104   10.4300   10.3584 H   0  0  0  0  0  0  0  0  0  0  0  0
   46.0724   10.6211   11.9840 H   0  0  0  0  0  0  0  0  0  0  0  0
   40.0569   13.4956    8.9534 H   0  0  0  0  0  0  0  0  0  0  0  0
   41.4355   10.5385    8.6309 H   0  0  0  0  0  0  0  0  0  0  0  0
   40.7333   15.6854    9.9329 H   0  0  0  0  0  0  0  0  0  0  0  0
   39.7710   13.9711   11.6155 H   0  0  0  0  0  0  0  0  0  0  0  0
   43.3401   15.9588   10.3910 H   0  0  0  0  0  0  0  0  0  0  0  0
   42.2572   15.3675   11.6398 H   0  0  0  0  0  0  0  0  0  0  0  0
   41.6201   12.5862    7.1841 H   0  0  0  0  0  0  0  0  0  0  0  0
   43.2847   12.1919    7.5948 H   0  0  0  0  0  0  0  0  0  0  0  0
   39.5885   11.6713   12.3502 H   0  0  0  0  0  0  0  0  0  0  0  0
   39.7265   10.3461   10.0732 H   0  0  0  0  0  0  0  0  0  0  0  0
   42.9341   14.4694    6.5895 H   0  0  0  0  0  0  0  0  0  0  0  0
   43.8276   14.4841    8.0997 H   0  0  0  0  0  0  0  0  0  0  0  0
   45.0073   14.7041   12.1915 H   0  0  0  0  0  0  0  0  0  0  0  0
   46.1347   12.5735   12.6035 H   0  0  0  0  0  0  0  0  0  0  0  0
   42.2685   16.8005    6.8897 H   0  0  0  0  0  0  0  0  0  0  0  0
   43.1851   16.8799    8.4010 H   0  0  0  0  0  0  0  0  0  0  0  0
   41.4588   17.3010    8.3643 H   0  0  0  0  0  0  0  0  0  0  0  0
   41.9618    9.6347   11.4495 H   0  0  0  0  0  0  0  0  0  0  0  0
   46.1992   10.3562   13.4492 H   0  0  0  0  0  0  0  0  0  0  0  0
   46.7025    8.9620   12.4858 H   0  0  0  0  0  0  0  0  0  0  0  0
   47.2772   10.5659   12.0144 H   0  0  0  0  0  0  0  0  0  0  0  0
  2  1  1  0
  3  1  2  0
  4  1  1  0
  5  3  1  0
  6  7  1  0
  7  4  2  0
  8  2  2  0
  9 12  2  0
 10  2  1  0
 11 14  2  0
 12 13  1  0
 13 10  1  0
 14 15  1  0
 15 13  2  0
 16 21  2  0
 17  5  1  0
 18  6  1  0
 19  9  1  0
 20 11  1  0
 21  4  1  0
 22 17  1  0
 23 19  1  0
 24 18  1  0
 25 20  1  0
 16  8  1  0
  6  5  2  0
 11  9  1  0
 27 26  1  0
 28 26  1  0
 29 27  2  0
 30 26  1  0
 30 31  1  0
 32 28  1  0
 33 27  1  0
 28 34  1  0
 32 35  1  0
 36 41  1  0
 26 37  1  1
 38 39  1  0
 39 30  1  0
 40 29  1  0
 41 37  1  0
 42 33  2  0
 43 42  1  0
 44 40  1  0
 39 45  1  0
 46 36  1  0
 29 31  1  0
 32 36  1  0
 38 34  2  0
 35 33  1  0
 43 40  2  0
 48 47  1  0
 49 47  1  0
 50 48  2  0
 51 47  1  0
 52 51  1  0
 53 49  1  0
 54 62  1  0
 55 48  1  0
 49 56  1  0
 53 57  1  0
 47 58  1  1
 59 60  1  0
 60 51  1  0
 61 50  1  0
 62 58  1  0
 63 55  2  0
 64 63  1  0
 65 54  1  0
 60 66  1  0
 67 61  1  0
 68 67  1  0
 52 50  1  0
 53 54  1  0
 59 56  2  0
 57 55  1  0
 64 61  2  0
  3 69  1  0
  7 70  1  0
 10 71  1  0
 10 72  1  0
 12 73  1  0
 14 74  1  0
 15 75  1  0
 16 76  1  0
 21 77  1  0
 22 78  1  0
 22 79  1  0
 22 80  1  0
 23 81  1  0
 23 82  1  0
 23 83  1  0
 24 84  1  0
 24 85  1  0
 24 86  1  0
 25 87  1  0
 25 88  1  0
 25 89  1  0
 28 90  1  1
 30 91  1  1
 32 92  1  6
 34 93  1  0
 35 94  1  0
 35 95  1  0
 37 96  1  0
 37 97  1  0
 38 98  1  0
 39 99  1  1
 41100  1  0
 41101  1  0
 42102  1  0
 43103  1  0
 44104  1  0
 45105  1  0
 46106  1  0
 46107  1  0
 46108  1  0
 49109  1  1
 51110  1  1
 53111  1  6
 56112  1  0
 57113  1  0
 57114  1  0
 58115  1  0
 58116  1  0
 59117  1  0
 60118  1  1
 62119  1  0
 62120  1  0
 63121  1  0
 64122  1  0
 65123  1  0
 65124  1  0
 65125  1  0
 66126  1  0
 68127  1  0
 68128  1  0
 68129  1  0
M  END
> <Uni-Dock RESULT> 
ENERGY=   -4.968  LOWER_BOUND=    7.844  UPPER_BOUND=   10.986
INTER + INTRA:          -4.968
INTER:                  -4.968
INTRA:                   0.000
UNBOUND:                 0.000

$$$$

     RDKit          3D

129139  0  0  0  0  0  0  0  0999 V2000
   44.2902   12.6415    8.5520 C   0  0  0  0  0  0  0  0  0  0  0  0
   43.4652   12.9113    9.6755 C   0  0  0  0  0  0  0  0  0  0  0  0
   43.8493   12.0342    7.3493 C   0  0  0  0  0  0  0  0  0  0  0  0
   45.6497   13.0087    8.6463 C   0  0  0  0  0  0  0  0  0  0  0  0
   44.7221   11.7954    6.2800 C   0  0  0  0  0  0  0  0  0  0  0  0
   46.0730   12.1627    6.3938 C   0  0  0  0  0  0  0  0  0  0  0  0
   46.5235   12.7660    7.5717 C   0  0  0  0  0  0  0  0  0  0  0  0
   43.9363   13.5062   10.8037 N   0  0  0  0  0  0  0  0  0  0  0  0
   39.8236   14.2990   12.2782 C   0  0  0  0  0  0  0  0  0  0  0  0
   41.9887   12.5429    9.6546 C   0  0  0  0  0  0  0  0  0  0  0  0
   39.7394   13.3095   13.2778 C   0  0  0  0  0  0  0  0  0  0  0  0
   40.5532   14.0432   11.1099 C   0  0  0  0  0  0  0  0  0  0  0  0
   41.2015   12.8122   10.9210 C   0  0  0  0  0  0  0  0  0  0  0  0
   40.3961   12.0884   13.0947 C   0  0  0  0  0  0  0  0  0  0  0  0
   41.1245   11.8438   11.9277 C   0  0  0  0  0  0  0  0  0  0  0  0
   45.2376   13.8402   10.8500 C   0  0  0  0  0  0  0  0  0  0  0  0
   44.3551   11.2119    5.0927 O   0  0  0  0  0  0  0  0  0  0  0  0
   46.8650   11.8941    5.3051 O   0  0  0  0  0  0  0  0  0  0  0  0
   39.1537   15.4717   12.5317 O   0  0  0  0  0  0  0  0  0  0  0  0
   38.9984   13.6331   14.3882 O   0  0  0  0  0  0  0  0  0  0  0  0
   46.1206   13.6146    9.8141 C   0  0  0  0  0  0  0  0  0  0  0  0
   42.9962   10.8355    4.9256 C   0  0  0  0  0  0  0  0  0  0  0  0
   39.3572   16.5496   11.6303 C   0  0  0  0  0  0  0  0  0  0  0  0
   48.2445   12.2195    5.3914 C   0  0  0  0  0  0  0  0  0  0  0  0
   38.9539   12.6872   15.4461 C   0  0  0  0  0  0  0  0  0  0  0  0
   42.3523   12.4283    9.9132 C   0  0  2  0  0  0  0  0  0  0  0  0
   43.1951   13.4781   10.5745 C   0  0  0  0  0  0  0  0  0  0  0  0
   42.1445   12.8441    8.4507 C   0  0  2  0  0  0  0  0  0  0  0  0
   42.7743   13.6900   11.8663 C   0  0  0  0  0  0  0  0  0  0  0  0
   41.1462   12.5209   10.8802 C   0  0  1  0  0  0  0  0  0  0  0  0
   41.6519   12.9753   12.1865 O   0  0  0  0  0  0  0  0  0  0  0  0
   43.5823   12.9890    7.8349 C   0  0  1  0  0  0  0  0  0  0  0  0
   44.1917   14.2426    9.9894 C   0  0  0  0  0  0  0  0  0  0  0  0
   41.2649   14.0661    8.3208 C   0  0  0  0  0  0  0  0  0  0  0  0
   44.3958   14.1469    8.5000 C   0  0  0  0  0  0  0  0  0  0  0  0
   44.3959   11.7519    7.9834 N   0  0  0  0  0  0  0  0  0  0  0  0
   43.0792   11.0630    9.9892 C   0  0  0  0  0  0  0  0  0  0  0  0
   40.2936   14.3293    9.2098 C   0  0  0  0  0  0  0  0  0  0  0  0
   39.9750   13.4150   10.3640 C   0  0  2  0  0  0  0  0  0  0  0  0
   43.4213   14.5933   12.6782 C   0  0  0  0  0  0  0  0  0  0  0  0
   43.7105   10.6474    8.6506 C   0  0  0  0  0  0  0  0  0  0  0  0
   44.8595   15.1634   10.8046 C   0  0  0  0  0  0  0  0  0  0  0  0
   44.4875   15.3218   12.1552 C   0  0  0  0  0  0  0  0  0  0  0  0
   43.0103   14.8100   13.9569 O   0  0  0  0  0  0  0  0  0  0  0  0
   39.3836   14.1620   11.4239 O   0  0  0  0  0  0  0  0  0  0  0  0
   44.9880   11.3289    6.7176 C   0  0  0  0  0  0  0  0  0  0  0  0
   43.1194   12.8334   10.8718 C   0  0  2  0  0  0  0  0  0  0  0  0
   43.1376   12.8056    9.3781 C   0  0  0  0  0  0  0  0  0  0  0  0
   42.0910   13.8719   11.3417 C   0  0  2  0  0  0  0  0  0  0  0  0
   44.4202   12.6261    8.9053 C   0  0  0  0  0  0  0  0  0  0  0  0
   44.6118   13.1538   11.0855 C   0  0  1  0  0  0  0  0  0  0  0  0
   45.3486   12.6315    9.9197 O   0  0  0  0  0  0  0  0  0  0  0  0
   40.7186   13.4457   10.7219 C   0  0  2  0  0  0  0  0  0  0  0  0
   40.3408   12.1540   11.3576 N   0  0  0  0  0  0  0  0  0  0  0  0
   42.0561   13.0191    8.5454 C   0  0  0  0  0  0  0  0  0  0  0  0
   42.5230   15.2856   11.0345 C   0  0  0  0  0  0  0  0  0  0  0  0
   40.7456   13.4473    9.1518 C   0  0  0  0  0  0  0  0  0  0  0  0
   42.7298   11.4432   11.4132 C   0  0  0  0  0  0  0  0  0  0  0  0
   43.8202   15.6289   11.0031 C   0  0  0  0  0  0  0  0  0  0  0  0
   44.9362   14.6643   11.2865 C   0  0  2  0  0  0  0  0  0  0  0  0
   44.6801   12.5304    7.5502 C   0  0  0  0  0  0  0  0  0  0  0  0
   41.2811   11.0638   11.0715 C   0  0  0  0  0  0  0  0  0  0  0  0
   42.2884   12.9304    7.1731 C   0  0  0  0  0  0  0  0  0  0  0  0
   43.5873   12.6678    6.6810 C   0  0  0  0  0  0  0  0  0  0  0  0
   38.9662   11.7525   11.0722 C   0  0  0  0  0  0  0  0  0  0  0  0
   46.0709   15.0758   10.5248 O   0  0  0  0  0  0  0  0  0  0  0  0
   45.9815   12.3401    7.1886 O   0  0  0  0  0  0  0  0  0  0  0  0
   46.2537   12.2314    5.7986 C   0  0  0  0  0  0  0  0  0  0  0  0
   42.8069   11.7497    7.2612 H   0  0  0  0  0  0  0  0  0  0  0  0
   47.5631   13.0607    7.6765 H   0  0  0  0  0  0  0  0  0  0  0  0
   41.8964   11.4733    9.4244 H   0  0  0  0  0  0  0  0  0  0  0  0
   41.5062   13.0824    8.8288 H   0  0  0  0  0  0  0  0  0  0  0  0
   40.6374   14.7907   10.3280 H   0  0  0  0  0  0  0  0  0  0  0  0
   40.3651   11.3045   13.8432 H   0  0  0  0  0  0  0  0  0  0  0  0
   41.6394   10.8925   11.8135 H   0  0  0  0  0  0  0  0  0  0  0  0
   45.5623   14.3100   11.7740 H   0  0  0  0  0  0  0  0  0  0  0  0
   47.1585   13.9110    9.9240 H   0  0  0  0  0  0  0  0  0  0  0  0
   42.3352   11.7067    4.9801 H   0  0  0  0  0  0  0  0  0  0  0  0
   42.7062   10.0710    5.6537 H   0  0  0  0  0  0  0  0  0  0  0  0
   42.8897   10.4004    3.9272 H   0  0  0  0  0  0  0  0  0  0  0  0
   38.8227   17.4197   12.0238 H   0  0  0  0  0  0  0  0  0  0  0  0
   38.9384   16.3218   10.6447 H   0  0  0  0  0  0  0  0  0  0  0  0
   40.4172   16.8157   11.5595 H   0  0  0  0  0  0  0  0  0  0  0  0
   48.3887   13.2984    5.5086 H   0  0  0  0  0  0  0  0  0  0  0  0
   48.7180   11.9218    4.4509 H   0  0  0  0  0  0  0  0  0  0  0  0
   48.7325   11.6638    6.1989 H   0  0  0  0  0  0  0  0  0  0  0  0
   38.4665   11.7603   15.1264 H   0  0  0  0  0  0  0  0  0  0  0  0
   39.9543   12.4920   15.8461 H   0  0  0  0  0  0  0  0  0  0  0  0
   38.3523   13.1162   16.2532 H   0  0  0  0  0  0  0  0  0  0  0  0
   41.6131   12.0512    7.9051 H   0  0  0  0  0  0  0  0  0  0  0  0
   40.7229   11.5257   11.0665 H   0  0  0  0  0  0  0  0  0  0  0  0
   43.4676   13.2319    6.7693 H   0  0  0  0  0  0  0  0  0  0  0  0
   41.4150   14.7278    7.4713 H   0  0  0  0  0  0  0  0  0  0  0  0
   45.4652   14.0502    8.2744 H   0  0  0  0  0  0  0  0  0  0  0  0
   44.0634   15.0954    8.0581 H   0  0  0  0  0  0  0  0  0  0  0  0
   43.8539   11.0651   10.7676 H   0  0  0  0  0  0  0  0  0  0  0  0
   42.3703   10.2721   10.2646 H   0  0  0  0  0  0  0  0  0  0  0  0
   39.6708   15.2066    9.0602 H   0  0  0  0  0  0  0  0  0  0  0  0
   39.1899   12.7402    9.9975 H   0  0  0  0  0  0  0  0  0  0  0  0
   42.9346   10.2248    7.9982 H   0  0  0  0  0  0  0  0  0  0  0  0
   44.4195    9.8341    8.8498 H   0  0  0  0  0  0  0  0  0  0  0  0
   45.6511   15.7860   10.3947 H   0  0  0  0  0  0  0  0  0  0  0  0
   45.0027   16.0458   12.7798 H   0  0  0  0  0  0  0  0  0  0  0  0
   42.2098   14.2600   14.0632 H   0  0  0  0  0  0  0  0  0  0  0  0
   38.7046   14.7419   11.0444 H   0  0  0  0  0  0  0  0  0  0  0  0
   44.2253   11.0311    5.9895 H   0  0  0  0  0  0  0  0  0  0  0  0
   45.6675   10.4832    6.8711 H   0  0  0  0  0  0  0  0  0  0  0  0
   45.5871   12.1364    6.2823 H   0  0  0  0  0  0  0  0  0  0  0  0
   41.9973   13.8273   12.4377 H   0  0  0  0  0  0  0  0  0  0  0  0
   45.0035   12.6112   11.9555 H   0  0  0  0  0  0  0  0  0  0  0  0
   39.9679   14.1844   11.0355 H   0  0  0  0  0  0  0  0  0  0  0  0
   41.7602   16.0444   10.8811 H   0  0  0  0  0  0  0  0  0  0  0  0
   39.9334   12.8409    8.7390 H   0  0  0  0  0  0  0  0  0  0  0  0
   40.5604   14.4785    8.8220 H   0  0  0  0  0  0  0  0  0  0  0  0
   42.8455   11.4447   12.5056 H   0  0  0  0  0  0  0  0  0  0  0  0
   43.3994   10.6622   11.0306 H   0  0  0  0  0  0  0  0  0  0  0  0
   44.1002   16.6632   10.8184 H   0  0  0  0  0  0  0  0  0  0  0  0
   45.2068   14.8133   12.3393 H   0  0  0  0  0  0  0  0  0  0  0  0
   41.0162   10.1850   11.6730 H   0  0  0  0  0  0  0  0  0  0  0  0
   41.2129   10.7488   10.0229 H   0  0  0  0  0  0  0  0  0  0  0  0
   41.4753   13.0893    6.4682 H   0  0  0  0  0  0  0  0  0  0  0  0
   43.7133   12.6144    5.6041 H   0  0  0  0  0  0  0  0  0  0  0  0
   38.6819   10.9043   11.7053 H   0  0  0  0  0  0  0  0  0  0  0  0
   38.8163   11.4555   10.0295 H   0  0  0  0  0  0  0  0  0  0  0  0
   38.2671   12.5626   11.3068 H   0  0  0  0  0  0  0  0  0  0  0  0
   46.2107   14.3835    9.8485 H   0  0  0  0  0  0  0  0  0  0  0  0
   46.0003   13.1584    5.2735 H   0  0  0  0  0  0  0  0  0  0  0  0
   47.3287   12.0652    5.6800 H   0  0  0  0  0  0  0  0  0  0  0  0
   45.7339   11.3734    5.3594 H   0  0  0  0  0  0  0  0  0  0  0  0
  2  1  1  0
  3  1  2  0
  4  1  1  0
  5  3  1  0
  6  7  1  0
  7  4  2  0
  8  2  2  0
  9 12  2  0
 10  2  1  0
 11 14  2  0
 12 13  1  0
 13 10  1  0
 14 15  1  0
 15 13  2  0
 16 21  2  0
 17  5  1  0
 18  6  1  0
 19  9  1  0
 20 11  1  0
 21  4  1  0
 22 17  1  0
 23 19  1  0
 24 18  1  0
 25 20  1  0
 16  8  1  0
  6  5  2  0
 11  9  1  0
 27 26  1  0
 28 26  1  0
 29 27  2  0
 30 26  1  0
 30 31  1  0
 32 28  1  0
 33 27  1  0
 28 34  1  0
 32 35  1  0
 36 41  1  0
 26 37  1  1
 38 39  1  0
 39 30  1  0
 40 29  1  0
 41 37  1  0
 42 33  2  0
 43 42  1  0
 44 40  1  0
 39 45  1  0
 46 36  1  0
 29 31  1  0
 32 36  1  0
 38 34  2  0
 35 33  1  0
 43 40  2  0
 48 47  1  0
 49 47  1  0
 50 48  2  0
 51 47  1  0
 52 51  1  0
 53 49  1  0
 54 62  1  0
 55 48  1  0
 49 56  1  0
 53 57  1  0
 47 58  1  1
 59 60  1  0
 60 51  1  0
 61 50  1  0
 62 58  1  0
 63 55  2  0
 64 63  1  0
 65 54  1  0
 60 66  1  0
 67 61  1  0
 68 67  1  0
 52 50  1  0
 53 54  1  0
 59 56  2  0
 57 55  1  0
 64 61  2  0
  3 69  1  0
  7 70  1  0
 10 71  1  0
 10 72  1  0
 12 73  1  0
 14 74  1  0
 15 75  1  0
 16 76  1  0
 21 77  1  0
 22 78  1  0
 22 79  1  0
 22 80  1  0
 23 81  1  0
 23 82  1  0
 23 83  1  0
 24 84  1  0
 24 85  1  0
 24 86  1  0
 25 87  1  0
 25 88  1  0
 25 89  1  0
 28 90  1  1
 30 91  1  1
 32 92  1  6
 34 93  1  0
 35 94  1  0
 35 95  1  0
 37 96  1  0
 37 97  1  0
 38 98  1  0
 39 99  1  1
 41100  1  0
 41101  1  0
 42102  1  0
 43103  1  0
 44104  1  0
 45105  1  0
 46106  1  0
 46107  1  0
 46108  1  0
 49109  1  1
 51110  1  1
 53111  1  6
 56112  1  0
 57113  1  0
 57114  1  0
 58115  1  0
 58116  1  0
 59117  1  0
 60118  1  1
 62119  1  0
 62120  1  0
 63121  1  0
 64122  1  0
 65123  1  0
 65124  1  0
 65125  1  0
 66126  1  0
 68127  1  0
 68128  1  0
 68129  1  0
M  END
> <Uni-Dock RESULT> 
ENERGY=   -4.955  LOWER_BOUND=    9.097  UPPER_BOUND=   11.787
INTER + INTRA:          -4.955
INTER:                  -4.955
INTRA:                   0.000
UNBOUND:                 0.000

$$$$

     RDKit          3D

129139  0  0  0  0  0  0  0  0999 V2000
   48.9531    9.5747   17.9220 C   0  0  0  0  0  0  0  0  0  0  0  0
   49.4691   10.7939   17.4092 C   0  0  0  0  0  0  0  0  0  0  0  0
   48.3193    9.4283   19.1816 C   0  0  0  0  0  0  0  0  0  0  0  0
   49.0838    8.4267   17.1114 C   0  0  0  0  0  0  0  0  0  0  0  0
   47.8355    8.1908   19.6250 C   0  0  0  0  0  0  0  0  0  0  0  0
   47.9791    7.0580   18.8071 C   0  0  0  0  0  0  0  0  0  0  0  0
   48.5985    7.1856   17.5603 C   0  0  0  0  0  0  0  0  0  0  0  0
   50.0602   10.8826   16.1880 N   0  0  0  0  0  0  0  0  0  0  0  0
   49.8335   15.3169   16.2385 C   0  0  0  0  0  0  0  0  0  0  0  0
   49.3705   12.0761   18.2230 C   0  0  0  0  0  0  0  0  0  0  0  0
   51.1843   15.6165   16.5051 C   0  0  0  0  0  0  0  0  0  0  0  0
   49.2548   14.1701   16.7977 C   0  0  0  0  0  0  0  0  0  0  0  0
   50.0034   13.3148   17.6219 C   0  0  0  0  0  0  0  0  0  0  0  0
   51.9329   14.7572   17.3157 C   0  0  0  0  0  0  0  0  0  0  0  0
   51.3481   13.6137   17.8658 C   0  0  0  0  0  0  0  0  0  0  0  0
   50.1625    9.7645   15.4488 C   0  0  0  0  0  0  0  0  0  0  0  0
   47.2143    7.9865   20.8321 O   0  0  0  0  0  0  0  0  0  0  0  0
   47.4819    5.8823   19.3121 O   0  0  0  0  0  0  0  0  0  0  0  0
   49.1653   16.2072   15.4328 O   0  0  0  0  0  0  0  0  0  0  0  0
   51.6749   16.7625   15.9282 O   0  0  0  0  0  0  0  0  0  0  0  0
   49.6981    8.5322   15.8608 C   0  0  0  0  0  0  0  0  0  0  0  0
   47.0340    9.1050   21.6881 C   0  0  0  0  0  0  0  0  0  0  0  0
   47.8599   15.8496   15.0041 C   0  0  0  0  0  0  0  0  0  0  0  0
   47.6363    4.7065   18.5310 C   0  0  0  0  0  0  0  0  0  0  0  0
   53.0515   17.0546   16.1164 C   0  0  0  0  0  0  0  0  0  0  0  0
   49.7138   11.8240   18.0475 C   0  0  2  0  0  0  0  0  0  0  0  0
   49.7480   11.4683   16.5907 C   0  0  0  0  0  0  0  0  0  0  0  0
   48.3024   11.5266   18.5714 C   0  0  2  0  0  0  0  0  0  0  0  0
   50.5121   12.3730   15.8921 C   0  0  0  0  0  0  0  0  0  0  0  0
   50.1398   13.3043   17.8880 C   0  0  1  0  0  0  0  0  0  0  0  0
   50.9599   13.4067   16.6692 O   0  0  0  0  0  0  0  0  0  0  0  0
   48.0460   10.0044   18.2804 C   0  0  1  0  0  0  0  0  0  0  0  0
   49.0417   10.4572   15.9592 C   0  0  0  0  0  0  0  0  0  0  0  0
   47.2684   12.4713   18.0037 C   0  0  0  0  0  0  0  0  0  0  0  0
   48.0105    9.6938   16.7483 C   0  0  0  0  0  0  0  0  0  0  0  0
   49.0895    9.1247   18.8731 N   0  0  0  0  0  0  0  0  0  0  0  0
   50.7628   10.9760   18.8080 C   0  0  0  0  0  0  0  0  0  0  0  0
   47.5795   13.7346   17.6712 C   0  0  0  0  0  0  0  0  0  0  0  0
   48.9526   14.3182   17.8802 C   0  0  2  0  0  0  0  0  0  0  0  0
   50.7099   12.2300   14.5377 C   0  0  0  0  0  0  0  0  0  0  0  0
   50.1322    9.8296   19.6151 C   0  0  0  0  0  0  0  0  0  0  0  0
   49.2356   10.2991   14.5822 C   0  0  0  0  0  0  0  0  0  0  0  0
   50.0876   11.1731   13.8768 C   0  0  0  0  0  0  0  0  0  0  0  0
   51.4633   13.1215   13.8388 O   0  0  0  0  0  0  0  0  0  0  0  0
   49.1759   15.3747   16.9501 O   0  0  0  0  0  0  0  0  0  0  0  0
   48.5107    8.0404   19.6613 C   0  0  0  0  0  0  0  0  0  0  0  0
   50.3544   11.5489   16.9588 C   0  0  2  0  0  0  0  0  0  0  0  0
   49.2393   10.9641   17.7630 C   0  0  0  0  0  0  0  0  0  0  0  0
   49.8584   12.8272   16.2682 C   0  0  2  0  0  0  0  0  0  0  0  0
   49.2585    9.5869   17.7017 C   0  0  0  0  0  0  0  0  0  0  0  0
   50.6325   10.3174   16.0746 C   0  0  1  0  0  0  0  0  0  0  0  0
   50.2210    9.1232   16.8359 O   0  0  0  0  0  0  0  0  0  0  0  0
   49.3616   13.7793   17.4066 C   0  0  2  0  0  0  0  0  0  0  0  0
   50.5599   14.1623   18.2020 N   0  0  0  0  0  0  0  0  0  0  0  0
   48.2483   11.6704   18.4172 C   0  0  0  0  0  0  0  0  0  0  0  0
   48.8463   12.5376   15.1858 C   0  0  0  0  0  0  0  0  0  0  0  0
   48.1721   13.1623   18.2253 C   0  0  0  0  0  0  0  0  0  0  0  0
   51.5391   11.8917   17.8843 C   0  0  0  0  0  0  0  0  0  0  0  0
   48.8830   11.3954   14.4820 C   0  0  0  0  0  0  0  0  0  0  0  0
   49.9249   10.3330   14.6867 C   0  0  2  0  0  0  0  0  0  0  0  0
   48.3411    8.8233   18.4004 C   0  0  0  0  0  0  0  0  0  0  0  0
   51.2091   13.0258   18.8664 C   0  0  0  0  0  0  0  0  0  0  0  0
   47.3078   10.9266   19.1292 C   0  0  0  0  0  0  0  0  0  0  0  0
   47.3668    9.5142   19.1366 C   0  0  0  0  0  0  0  0  0  0  0  0
   50.3018   15.2466   19.1454 C   0  0  0  0  0  0  0  0  0  0  0  0
   49.3302    9.0741   14.3729 O   0  0  0  0  0  0  0  0  0  0  0  0
   48.4555    7.4692   18.2821 O   0  0  0  0  0  0  0  0  0  0  0  0
   47.5220    6.6791   19.0049 C   0  0  0  0  0  0  0  0  0  0  0  0
   48.2090   10.3021   19.8137 H   0  0  0  0  0  0  0  0  0  0  0  0
   48.7147    6.3223   16.9124 H   0  0  0  0  0  0  0  0  0  0  0  0
   49.8335   11.9065   19.2040 H   0  0  0  0  0  0  0  0  0  0  0  0
   48.3099   12.2891   18.4113 H   0  0  0  0  0  0  0  0  0  0  0  0
   48.2184   13.9148   16.6031 H   0  0  0  0  0  0  0  0  0  0  0  0
   52.9775   14.9456   17.5373 H   0  0  0  0  0  0  0  0  0  0  0  0
   51.9537   12.9520   18.4811 H   0  0  0  0  0  0  0  0  0  0  0  0
   50.6445    9.8902   14.4835 H   0  0  0  0  0  0  0  0  0  0  0  0
   49.8168    7.6726   15.2095 H   0  0  0  0  0  0  0  0  0  0  0  0
   46.4017    9.8650   21.2175 H   0  0  0  0  0  0  0  0  0  0  0  0
   47.9969    9.5252   21.9963 H   0  0  0  0  0  0  0  0  0  0  0  0
   46.5198    8.7575   22.5893 H   0  0  0  0  0  0  0  0  0  0  0  0
   47.5125   16.6219   14.3110 H   0  0  0  0  0  0  0  0  0  0  0  0
   47.1626   15.8244   15.8478 H   0  0  0  0  0  0  0  0  0  0  0  0
   47.8644   14.8969   14.4640 H   0  0  0  0  0  0  0  0  0  0  0  0
   47.0925    4.7876   17.5843 H   0  0  0  0  0  0  0  0  0  0  0  0
   47.2031    3.8729   19.0920 H   0  0  0  0  0  0  0  0  0  0  0  0
   48.6942    4.4791   18.3629 H   0  0  0  0  0  0  0  0  0  0  0  0
   53.2759   17.2341   17.1729 H   0  0  0  0  0  0  0  0  0  0  0  0
   53.6851   16.2620   15.7050 H   0  0  0  0  0  0  0  0  0  0  0  0
   53.2757   17.9754   15.5692 H   0  0  0  0  0  0  0  0  0  0  0  0
   48.2635   11.6819   19.6591 H   0  0  0  0  0  0  0  0  0  0  0  0
   50.8045   13.6056   18.7076 H   0  0  0  0  0  0  0  0  0  0  0  0
   47.0622    9.7449   18.6958 H   0  0  0  0  0  0  0  0  0  0  0  0
   46.2471   12.1170   17.8882 H   0  0  0  0  0  0  0  0  0  0  0  0
   48.1222    8.6174   16.5672 H   0  0  0  0  0  0  0  0  0  0  0  0
   47.0218    9.9785   16.3650 H   0  0  0  0  0  0  0  0  0  0  0  0
   51.5157   10.5630   18.1234 H   0  0  0  0  0  0  0  0  0  0  0  0
   51.3100   11.6034   19.5228 H   0  0  0  0  0  0  0  0  0  0  0  0
   46.7962   14.3836   17.2904 H   0  0  0  0  0  0  0  0  0  0  0  0
   48.9242   14.7911   18.8709 H   0  0  0  0  0  0  0  0  0  0  0  0
   49.7334   10.2256   20.5587 H   0  0  0  0  0  0  0  0  0  0  0  0
   50.9320    9.1306   19.8901 H   0  0  0  0  0  0  0  0  0  0  0  0
   48.7069    9.5191   14.0398 H   0  0  0  0  0  0  0  0  0  0  0  0
   50.2256   11.0517   12.8063 H   0  0  0  0  0  0  0  0  0  0  0  0
   51.7146   13.8065   14.4888 H   0  0  0  0  0  0  0  0  0  0  0  0
   48.3887   15.9418   16.9404 H   0  0  0  0  0  0  0  0  0  0  0  0
   47.9803    8.4152   20.5437 H   0  0  0  0  0  0  0  0  0  0  0  0
   49.2894    7.3460   19.9957 H   0  0  0  0  0  0  0  0  0  0  0  0
   47.8088    7.4554   19.0567 H   0  0  0  0  0  0  0  0  0  0  0  0
   50.6997   13.3193   15.7566 H   0  0  0  0  0  0  0  0  0  0  0  0
   51.7097   10.2034   15.8972 H   0  0  0  0  0  0  0  0  0  0  0  0
   48.9889   14.6982   16.9330 H   0  0  0  0  0  0  0  0  0  0  0  0
   48.1036   13.2945   14.9477 H   0  0  0  0  0  0  0  0  0  0  0  0
   48.0607   13.6531   19.1971 H   0  0  0  0  0  0  0  0  0  0  0  0
   47.2487   13.3680   17.6672 H   0  0  0  0  0  0  0  0  0  0  0  0
   52.3932   12.1986   17.2655 H   0  0  0  0  0  0  0  0  0  0  0  0
   51.8682   11.0141   18.4555 H   0  0  0  0  0  0  0  0  0  0  0  0
   48.1654   11.2316   13.6816 H   0  0  0  0  0  0  0  0  0  0  0  0
   50.6907   10.5067   13.9204 H   0  0  0  0  0  0  0  0  0  0  0  0
   52.1512   13.3573   19.3211 H   0  0  0  0  0  0  0  0  0  0  0  0
   50.5909   12.6431   19.6878 H   0  0  0  0  0  0  0  0  0  0  0  0
   46.5038   11.4274   19.6639 H   0  0  0  0  0  0  0  0  0  0  0  0
   46.6069    8.9844   19.7026 H   0  0  0  0  0  0  0  0  0  0  0  0
   51.2451   15.6126   19.5665 H   0  0  0  0  0  0  0  0  0  0  0  0
   49.6598   14.9435   19.9785 H   0  0  0  0  0  0  0  0  0  0  0  0
   49.8360   16.0998   18.6403 H   0  0  0  0  0  0  0  0  0  0  0  0
   49.2705    8.5831   15.2165 H   0  0  0  0  0  0  0  0  0  0  0  0
   46.4999    6.8571   18.6544 H   0  0  0  0  0  0  0  0  0  0  0  0
   47.7590    5.6272   18.8190 H   0  0  0  0  0  0  0  0  0  0  0  0
   47.6065    6.8539   20.0828 H   0  0  0  0  0  0  0  0  0  0  0  0
  2  1  1  0
  3  1  2  0
  4  1  1  0
  5  3  1  0
  6  7  1  0
  7  4  2  0
  8  2  2  0
  9 12  2  0
 10  2  1  0
 11 14  2  0
 12 13  1  0
 13 10  1  0
 14 15  1  0
 15 13  2  0
 16 21  2  0
 17  5  1  0
 18  6  1  0
 19  9  1  0
 20 11  1  0
 21  4  1  0
 22 17  1  0
 23 19  1  0
 24 18  1  0
 25 20  1  0
 16  8  1  0
  6  5  2  0
 11  9  1  0
 27 26  1  0
 28 26  1  0
 29 27  2  0
 30 26  1  0
 30 31  1  0
 32 28  1  0
 33 27  1  0
 28 34  1  0
 32 35  1  0
 36 41  1  0
 26 37  1  1
 38 39  1  0
 39 30  1  0
 40 29  1  0
 41 37  1  0
 42 33  2  0
 43 42  1  0
 44 40  1  0
 39 45  1  0
 46 36  1  0
 29 31  1  0
 32 36  1  0
 38 34  2  0
 35 33  1  0
 43 40  2  0
 48 47  1  0
 49 47  1  0
 50 48  2  0
 51 47  1  0
 52 51  1  0
 53 49  1  0
 54 62  1  0
 55 48  1  0
 49 56  1  0
 53 57  1  0
 47 58  1  1
 59 60  1  0
 60 51  1  0
 61 50  1  0
 62 58  1  0
 63 55  2  0
 64 63  1  0
 65 54  1  0
 60 66  1  0
 67 61  1  0
 68 67  1  0
 52 50  1  0
 53 54  1  0
 59 56  2  0
 57 55  1  0
 64 61  2  0
  3 69  1  0
  7 70  1  0
 10 71  1  0
 10 72  1  0
 12 73  1  0
 14 74  1  0
 15 75  1  0
 16 76  1  0
 21 77  1  0
 22 78  1  0
 22 79  1  0
 22 80  1  0
 23 81  1  0
 23 82  1  0
 23 83  1  0
 24 84  1  0
 24 85  1  0
 24 86  1  0
 25 87  1  0
 25 88  1  0
 25 89  1  0
 28 90  1  1
 30 91  1  1
 32 92  1  6
 34 93  1  0
 35 94  1  0
 35 95  1  0
 37 96  1  0
 37 97  1  0
 38 98  1  0
 39 99  1  1
 41100  1  0
 41101  1  0
 42102  1  0
 43103  1  0
 44104  1  0
 45105  1  0
 46106  1  0
 46107  1  0
 46108  1  0
 49109  1  1
 51110  1  1
 53111  1  6
 56112  1  0
 57113  1  0
 57114  1  0
 58115  1  0
 58116  1  0
 59117  1  0
 60118  1  1
 62119  1  0
 62120  1  0
 63121  1  0
 64122  1  0
 65123  1  0
 65124  1  0
 65125  1  0
 66126  1  0
 68127  1  0
 68128  1  0
 68129  1  0
M  END
> <Uni-Dock RESULT> 
ENERGY=   -4.894  LOWER_BOUND=    2.409  UPPER_BOUND=    5.146
INTER + INTRA:          -4.894
INTER:                  -4.894
INTRA:                   0.000
UNBOUND:                 0.000

$$$$

     RDKit          3D

129139  0  0  0  0  0  0  0  0999 V2000
   47.8805    8.2106   12.7573 C   0  0  0  0  0  0  0  0  0  0  0  0
   49.0967    8.9281   12.9051 C   0  0  0  0  0  0  0  0  0  0  0  0
   47.6933    6.8504   13.1100 C   0  0  0  0  0  0  0  0  0  0  0  0
   46.7795    8.9105   12.2188 C   0  0  0  0  0  0  0  0  0  0  0  0
   46.4629    6.2047   12.9334 C   0  0  0  0  0  0  0  0  0  0  0  0
   45.3796    6.9156   12.3911 C   0  0  0  0  0  0  0  0  0  0  0  0
   45.5462    8.2588   12.0412 C   0  0  0  0  0  0  0  0  0  0  0  0
   49.2210   10.2373   12.5600 N   0  0  0  0  0  0  0  0  0  0  0  0
   53.0700   10.5987   14.7442 C   0  0  0  0  0  0  0  0  0  0  0  0
   50.3312    8.2444   13.4750 C   0  0  0  0  0  0  0  0  0  0  0  0
   53.9588   10.6077   13.6508 C   0  0  0  0  0  0  0  0  0  0  0  0
   51.8992    9.8322   14.6791 C   0  0  0  0  0  0  0  0  0  0  0  0
   51.5996    9.0710   13.5380 C   0  0  0  0  0  0  0  0  0  0  0  0
   53.6533    9.8594   12.5094 C   0  0  0  0  0  0  0  0  0  0  0  0
   52.4813    9.1009   12.4523 C   0  0  0  0  0  0  0  0  0  0  0  0
   48.1464   10.8653   12.0519 C   0  0  0  0  0  0  0  0  0  0  0  0
   46.2207    4.8921   13.2550 O   0  0  0  0  0  0  0  0  0  0  0  0
   44.2088    6.2135   12.2470 O   0  0  0  0  0  0  0  0  0  0  0  0
   53.4383   11.3597   15.8276 O   0  0  0  0  0  0  0  0  0  0  0  0
   55.0882   11.3759   13.7956 O   0  0  0  0  0  0  0  0  0  0  0  0
   46.9236   10.2543   11.8640 C   0  0  0  0  0  0  0  0  0  0  0  0
   47.2821    4.1361   13.8190 C   0  0  0  0  0  0  0  0  0  0  0  0
   52.4899   11.5116   16.8733 C   0  0  0  0  0  0  0  0  0  0  0  0
   43.0982    6.8858   11.6716 C   0  0  0  0  0  0  0  0  0  0  0  0
   55.9680   11.4654   12.6849 C   0  0  0  0  0  0  0  0  0  0  0  0
   50.2242    8.4514   13.0776 C   0  0  2  0  0  0  0  0  0  0  0  0
   49.6759    9.8473   13.0536 C   0  0  0  0  0  0  0  0  0  0  0  0
   49.4458    7.6581   14.1358 C   0  0  2  0  0  0  0  0  0  0  0  0
   50.6874   10.7586   12.8616 C   0  0  0  0  0  0  0  0  0  0  0  0
   51.6938    8.8336   13.3821 C   0  0  1  0  0  0  0  0  0  0  0  0
   51.9285   10.1825   12.8398 O   0  0  0  0  0  0  0  0  0  0  0  0
   47.9351    7.7427   13.7134 C   0  0  1  0  0  0  0  0  0  0  0  0
   48.3690   10.2375   13.2980 C   0  0  0  0  0  0  0  0  0  0  0  0
   49.7463    8.1268   15.5407 C   0  0  0  0  0  0  0  0  0  0  0  0
   47.3842    9.2046   13.7800 C   0  0  0  0  0  0  0  0  0  0  0  0
   47.7006    7.2580   12.3262 N   0  0  0  0  0  0  0  0  0  0  0  0
   50.0488    7.8065   11.6807 C   0  0  0  0  0  0  0  0  0  0  0  0
   50.9445    8.6359   15.8694 C   0  0  0  0  0  0  0  0  0  0  0  0
   52.0852    8.7340   14.8902 C   0  0  2  0  0  0  0  0  0  0  0  0
   50.4151   12.1049   12.7763 C   0  0  0  0  0  0  0  0  0  0  0  0
   48.8982    6.7881   11.6336 C   0  0  0  0  0  0  0  0  0  0  0  0
   48.0778   11.6036   13.2121 C   0  0  0  0  0  0  0  0  0  0  0  0
   49.0985   12.5341   12.9291 C   0  0  0  0  0  0  0  0  0  0  0  0
   51.4103   13.0133   12.5879 O   0  0  0  0  0  0  0  0  0  0  0  0
   52.9609    9.7915   15.2721 O   0  0  0  0  0  0  0  0  0  0  0  0
   46.6241    6.2736   12.2632 C   0  0  0  0  0  0  0  0  0  0  0  0
   50.0692    9.6027   12.5102 C   0  0  2  0  0  0  0  0  0  0  0  0
   49.2097    8.5584   13.1449 C   0  0  0  0  0  0  0  0  0  0  0  0
   50.8749   10.3208   13.6020 C   0  0  2  0  0  0  0  0  0  0  0  0
   47.9846    8.4816   12.5172 C   0  0  0  0  0  0  0  0  0  0  0  0
   48.9445   10.3922   11.8121 C   0  0  1  0  0  0  0  0  0  0  0  0
   47.8374    9.4525   11.5545 O   0  0  0  0  0  0  0  0  0  0  0  0
   51.7012    9.2153   14.3399 C   0  0  2  0  0  0  0  0  0  0  0  0
   52.6885    8.6879   13.3588 N   0  0  0  0  0  0  0  0  0  0  0  0
   49.5241    7.8142   14.2657 C   0  0  0  0  0  0  0  0  0  0  0  0
   50.0015   11.1716   14.4926 C   0  0  0  0  0  0  0  0  0  0  0  0
   50.7837    8.1402   15.0244 C   0  0  0  0  0  0  0  0  0  0  0  0
   51.0370    8.9415   11.5085 C   0  0  0  0  0  0  0  0  0  0  0  0
   48.8835   11.7508   14.0278 C   0  0  0  0  0  0  0  0  0  0  0  0
   48.4204   11.6270   12.6043 C   0  0  2  0  0  0  0  0  0  0  0  0
   47.0329    7.5574   12.9083 C   0  0  0  0  0  0  0  0  0  0  0  0
   52.0696    8.0371   12.1978 C   0  0  0  0  0  0  0  0  0  0  0  0
   48.5824    6.8749   14.6847 C   0  0  0  0  0  0  0  0  0  0  0  0
   47.3548    6.7344   13.9981 C   0  0  0  0  0  0  0  0  0  0  0  0
   53.7011    7.8291   13.9665 C   0  0  0  0  0  0  0  0  0  0  0  0
   46.9950   11.7007   12.6026 O   0  0  0  0  0  0  0  0  0  0  0  0
   45.8593    7.5557   12.2130 O   0  0  0  0  0  0  0  0  0  0  0  0
   44.8814    6.6023   12.6039 C   0  0  0  0  0  0  0  0  0  0  0  0
   48.5293    6.3010   13.5278 H   0  0  0  0  0  0  0  0  0  0  0  0
   44.7194    8.8258   11.6247 H   0  0  0  0  0  0  0  0  0  0  0  0
   50.5449    7.3489   12.8768 H   0  0  0  0  0  0  0  0  0  0  0  0
   50.0989    7.8938   14.4893 H   0  0  0  0  0  0  0  0  0  0  0  0
   51.1965    9.8130   15.5055 H   0  0  0  0  0  0  0  0  0  0  0  0
   54.3048    9.8468   11.6427 H   0  0  0  0  0  0  0  0  0  0  0  0
   52.2571    8.5386   11.5486 H   0  0  0  0  0  0  0  0  0  0  0  0
   48.3003   11.9084   11.7909 H   0  0  0  0  0  0  0  0  0  0  0  0
   46.1006   10.8254   11.4473 H   0  0  0  0  0  0  0  0  0  0  0  0
   47.6068    4.5620   14.7740 H   0  0  0  0  0  0  0  0  0  0  0  0
   48.1191    4.0477   13.1188 H   0  0  0  0  0  0  0  0  0  0  0  0
   46.9066    3.1275   14.0164 H   0  0  0  0  0  0  0  0  0  0  0  0
   52.9096   12.2071   17.6065 H   0  0  0  0  0  0  0  0  0  0  0  0
   52.3125   10.5595   17.3840 H   0  0  0  0  0  0  0  0  0  0  0  0
   51.5542   11.9442   16.5035 H   0  0  0  0  0  0  0  0  0  0  0  0
   42.7771    7.7245   12.2979 H   0  0  0  0  0  0  0  0  0  0  0  0
   42.2680    6.1751   11.6179 H   0  0  0  0  0  0  0  0  0  0  0  0
   43.3200    7.2147   10.6510 H   0  0  0  0  0  0  0  0  0  0  0  0
   56.4026   10.4892   12.4462 H   0  0  0  0  0  0  0  0  0  0  0  0
   55.4653   11.8997   11.8146 H   0  0  0  0  0  0  0  0  0  0  0  0
   56.7886   12.1344   12.9615 H   0  0  0  0  0  0  0  0  0  0  0  0
   49.7515    6.6023   14.1160 H   0  0  0  0  0  0  0  0  0  0  0  0
   52.3845    8.1798   12.8346 H   0  0  0  0  0  0  0  0  0  0  0  0
   47.3546    7.1354   14.4218 H   0  0  0  0  0  0  0  0  0  0  0  0
   48.9754    8.0228   16.3003 H   0  0  0  0  0  0  0  0  0  0  0  0
   46.4454    9.2922   13.2188 H   0  0  0  0  0  0  0  0  0  0  0  0
   47.1493    9.4336   14.8277 H   0  0  0  0  0  0  0  0  0  0  0  0
   49.8878    8.5681   10.9059 H   0  0  0  0  0  0  0  0  0  0  0  0
   50.9611    7.2677   11.3957 H   0  0  0  0  0  0  0  0  0  0  0  0
   51.1213    8.9359   16.8983 H   0  0  0  0  0  0  0  0  0  0  0  0
   52.6611    7.8073   15.0147 H   0  0  0  0  0  0  0  0  0  0  0  0
   49.2394    5.8341   12.0573 H   0  0  0  0  0  0  0  0  0  0  0  0
   48.6661    6.5895   10.5797 H   0  0  0  0  0  0  0  0  0  0  0  0
   47.0672   11.9616   13.3926 H   0  0  0  0  0  0  0  0  0  0  0  0
   48.8680   13.5941   12.8742 H   0  0  0  0  0  0  0  0  0  0  0  0
   52.2362   12.4913   12.5983 H   0  0  0  0  0  0  0  0  0  0  0  0
   53.1264    9.7192   16.2254 H   0  0  0  0  0  0  0  0  0  0  0  0
   46.8799    5.3539   12.8011 H   0  0  0  0  0  0  0  0  0  0  0  0
   46.3972    6.0135   11.2234 H   0  0  0  0  0  0  0  0  0  0  0  0
   45.7020    6.6814   12.6919 H   0  0  0  0  0  0  0  0  0  0  0  0
   51.5848   11.0208   13.1352 H   0  0  0  0  0  0  0  0  0  0  0  0
   49.2737   10.7451   10.8262 H   0  0  0  0  0  0  0  0  0  0  0  0
   52.2775    9.7063   15.1363 H   0  0  0  0  0  0  0  0  0  0  0  0
   50.3157   11.3501   15.5176 H   0  0  0  0  0  0  0  0  0  0  0  0
   51.3368    7.2192   15.2325 H   0  0  0  0  0  0  0  0  0  0  0  0
   50.4769    8.5439   15.9987 H   0  0  0  0  0  0  0  0  0  0  0  0
   51.5697    9.7298   10.9594 H   0  0  0  0  0  0  0  0  0  0  0  0
   50.4953    8.3514   10.7580 H   0  0  0  0  0  0  0  0  0  0  0  0
   48.2956   12.3905   14.6816 H   0  0  0  0  0  0  0  0  0  0  0  0
   48.7720   12.5305   12.0906 H   0  0  0  0  0  0  0  0  0  0  0  0
   52.8439    7.7926   11.4596 H   0  0  0  0  0  0  0  0  0  0  0  0
   51.6049    7.0845   12.4807 H   0  0  0  0  0  0  0  0  0  0  0  0
   48.7741    6.2599   15.5613 H   0  0  0  0  0  0  0  0  0  0  0  0
   46.6555    5.9917   14.3696 H   0  0  0  0  0  0  0  0  0  0  0  0
   54.5007    7.6213   13.2466 H   0  0  0  0  0  0  0  0  0  0  0  0
   53.2988    6.8690   14.3048 H   0  0  0  0  0  0  0  0  0  0  0  0
   54.1738    8.3278   14.8196 H   0  0  0  0  0  0  0  0  0  0  0  0
   46.6767   10.8144   12.3392 H   0  0  0  0  0  0  0  0  0  0  0  0
   44.5430    6.7824   13.6297 H   0  0  0  0  0  0  0  0  0  0  0  0
   44.0171    6.7193   11.9430 H   0  0  0  0  0  0  0  0  0  0  0  0
   45.2555    5.5800   12.4846 H   0  0  0  0  0  0  0  0  0  0  0  0
  2  1  1  0
  3  1  2  0
  4  1  1  0
  5  3  1  0
  6  7  1  0
  7  4  2  0
  8  2  2  0
  9 12  2  0
 10  2  1  0
 11 14  2  0
 12 13  1  0
 13 10  1  0
 14 15  1  0
 15 13  2  0
 16 21  2  0
 17  5  1  0
 18  6  1  0
 19  9  1  0
 20 11  1  0
 21  4  1  0
 22 17  1  0
 23 19  1  0
 24 18  1  0
 25 20  1  0
 16  8  1  0
  6  5  2  0
 11  9  1  0
 27 26  1  0
 28 26  1  0
 29 27  2  0
 30 26  1  0
 30 31  1  0
 32 28  1  0
 33 27  1  0
 28 34  1  0
 32 35  1  0
 36 41  1  0
 26 37  1  1
 38 39  1  0
 39 30  1  0
 40 29  1  0
 41 37  1  0
 42 33  2  0
 43 42  1  0
 44 40  1  0
 39 45  1  0
 46 36  1  0
 29 31  1  0
 32 36  1  0
 38 34  2  0
 35 33  1  0
 43 40  2  0
 48 47  1  0
 49 47  1  0
 50 48  2  0
 51 47  1  0
 52 51  1  0
 53 49  1  0
 54 62  1  0
 55 48  1  0
 49 56  1  0
 53 57  1  0
 47 58  1  1
 59 60  1  0
 60 51  1  0
 61 50  1  0
 62 58  1  0
 63 55  2  0
 64 63  1  0
 65 54  1  0
 60 66  1  0
 67 61  1  0
 68 67  1  0
 52 50  1  0
 53 54  1  0
 59 56  2  0
 57 55  1  0
 64 61  2  0
  3 69  1  0
  7 70  1  0
 10 71  1  0
 10 72  1  0
 12 73  1  0
 14 74  1  0
 15 75  1  0
 16 76  1  0
 21 77  1  0
 22 78  1  0
 22 79  1  0
 22 80  1  0
 23 81  1  0
 23 82  1  0
 23 83  1  0
 24 84  1  0
 24 85  1  0
 24 86  1  0
 25 87  1  0
 25 88  1  0
 25 89  1  0
 28 90  1  1
 30 91  1  1
 32 92  1  6
 34 93  1  0
 35 94  1  0
 35 95  1  0
 37 96  1  0
 37 97  1  0
 38 98  1  0
 39 99  1  1
 41100  1  0
 41101  1  0
 42102  1  0
 43103  1  0
 44104  1  0
 45105  1  0
 46106  1  0
 46107  1  0
 46108  1  0
 49109  1  1
 51110  1  1
 53111  1  6
 56112  1  0
 57113  1  0
 57114  1  0
 58115  1  0
 58116  1  0
 59117  1  0
 60118  1  1
 62119  1  0
 62120  1  0
 63121  1  0
 64122  1  0
 65123  1  0
 65124  1  0
 65125  1  0
 66126  1  0
 68127  1  0
 68128  1  0
 68129  1  0
M  END
> <Uni-Dock RESULT> 
ENERGY=   -4.886  LOWER_BOUND=    3.087  UPPER_BOUND=    4.800
INTER + INTRA:          -4.886
INTER:                  -4.886
INTRA:                   0.000
UNBOUND:                 0.000

$$$$

     RDKit          3D

129139  0  0  0  0  0  0  0  0999 V2000
   41.2325   13.2152   11.2943 C   0  0  0  0  0  0  0  0  0  0  0  0
   42.0700   13.6585   10.2371 C   0  0  0  0  0  0  0  0  0  0  0  0
   40.3472   12.1105   11.2189 C   0  0  0  0  0  0  0  0  0  0  0  0
   41.2914   13.9322   12.5086 C   0  0  0  0  0  0  0  0  0  0  0  0
   39.5466   11.7310   12.3038 C   0  0  0  0  0  0  0  0  0  0  0  0
   39.6145   12.4595   13.5027 C   0  0  0  0  0  0  0  0  0  0  0  0
   40.4850   13.5495   13.5951 C   0  0  0  0  0  0  0  0  0  0  0  0
   42.9102   14.7198   10.3645 N   0  0  0  0  0  0  0  0  0  0  0  0
   45.0908   13.6253    6.6546 C   0  0  0  0  0  0  0  0  0  0  0  0
   42.0630   12.9411    8.8949 C   0  0  0  0  0  0  0  0  0  0  0  0
   44.5774   14.6070    5.7840 C   0  0  0  0  0  0  0  0  0  0  0  0
   44.2713   13.0921    7.6580 C   0  0  0  0  0  0  0  0  0  0  0  0
   42.9433   13.5225    7.8072 C   0  0  0  0  0  0  0  0  0  0  0  0
   43.2584   15.0446    5.9414 C   0  0  0  0  0  0  0  0  0  0  0  0
   42.4498   14.5097    6.9475 C   0  0  0  0  0  0  0  0  0  0  0  0
   42.9349   15.3732   11.5391 C   0  0  0  0  0  0  0  0  0  0  0  0
   38.6716   10.6730   12.2914 O   0  0  0  0  0  0  0  0  0  0  0  0
   38.7982   12.0275   14.5184 O   0  0  0  0  0  0  0  0  0  0  0  0
   46.3946   13.2486    6.4380 O   0  0  0  0  0  0  0  0  0  0  0  0
   45.4398   15.0727    4.8216 O   0  0  0  0  0  0  0  0  0  0  0  0
   42.1560   15.0239   12.6231 C   0  0  0  0  0  0  0  0  0  0  0  0
   38.5779    9.8979   11.1055 C   0  0  0  0  0  0  0  0  0  0  0  0
   46.9966   12.3930    7.3979 C   0  0  0  0  0  0  0  0  0  0  0  0
   38.8119   12.7568   15.7367 C   0  0  0  0  0  0  0  0  0  0  0  0
   44.9778   16.1146    3.9750 C   0  0  0  0  0  0  0  0  0  0  0  0
   41.9709   13.3687    9.0394 C   0  0  2  0  0  0  0  0  0  0  0  0
   42.9693   14.1472    9.8436 C   0  0  0  0  0  0  0  0  0  0  0  0
   41.8639   11.9659    9.6523 C   0  0  2  0  0  0  0  0  0  0  0  0
   43.7240   14.9532    9.0243 C   0  0  0  0  0  0  0  0  0  0  0  0
   42.6776   13.5183    7.6695 C   0  0  1  0  0  0  0  0  0  0  0  0
   43.4475   14.7733    7.6961 O   0  0  0  0  0  0  0  0  0  0  0  0
   41.4468   12.1809   11.1515 C   0  0  1  0  0  0  0  0  0  0  0  0
   43.2233   14.0320   11.2009 C   0  0  0  0  0  0  0  0  0  0  0  0
   43.1206   11.1522    9.4465 C   0  0  0  0  0  0  0  0  0  0  0  0
   42.5510   12.9255   11.9709 C   0  0  0  0  0  0  0  0  0  0  0  0
   40.1982   12.9785   11.2895 N   0  0  0  0  0  0  0  0  0  0  0  0
   40.5996   14.0865    9.0889 C   0  0  0  0  0  0  0  0  0  0  0  0
   43.9003   11.3261    8.3672 C   0  0  0  0  0  0  0  0  0  0  0  0
   43.5637   12.2977    7.2662 C   0  0  2  0  0  0  0  0  0  0  0  0
   44.6888   15.7831    9.5480 C   0  0  0  0  0  0  0  0  0  0  0  0
   39.5961   13.3929   10.0243 C   0  0  0  0  0  0  0  0  0  0  0  0
   44.2004   14.8720   11.7470 C   0  0  0  0  0  0  0  0  0  0  0  0
   44.9170   15.7630   10.9223 C   0  0  0  0  0  0  0  0  0  0  0  0
   45.4409   16.5826    8.7442 O   0  0  0  0  0  0  0  0  0  0  0  0
   44.7569   12.7151    6.6079 O   0  0  0  0  0  0  0  0  0  0  0  0
   39.2232   12.3261   12.1587 C   0  0  0  0  0  0  0  0  0  0  0  0
   42.5111   14.4829    9.4110 C   0  0  2  0  0  0  0  0  0  0  0  0
   41.9406   13.2619   10.0557 C   0  0  0  0  0  0  0  0  0  0  0  0
   43.8529   14.1244    8.7567 C   0  0  2  0  0  0  0  0  0  0  0  0
   41.3171   13.5788   11.2438 C   0  0  0  0  0  0  0  0  0  0  0  0
   42.5410   15.3778   10.6655 C   0  0  1  0  0  0  0  0  0  0  0  0
   41.4798   14.9040   11.5734 O   0  0  0  0  0  0  0  0  0  0  0  0
   43.5531   12.9776    7.7349 C   0  0  2  0  0  0  0  0  0  0  0  0
   42.7008   13.5649    6.6652 N   0  0  0  0  0  0  0  0  0  0  0  0
   42.0764   11.9628    9.6051 C   0  0  0  0  0  0  0  0  0  0  0  0
   44.9223   13.8130    9.7761 C   0  0  0  0  0  0  0  0  0  0  0  0
   42.9795   11.6919    8.4307 C   0  0  0  0  0  0  0  0  0  0  0  0
   41.5384   15.0057    8.3350 C   0  0  0  0  0  0  0  0  0  0  0  0
   44.9281   14.3981   10.9840 C   0  0  0  0  0  0  0  0  0  0  0  0
   43.9064   15.4112   11.4152 C   0  0  2  0  0  0  0  0  0  0  0  0
   40.6808   12.6128   12.0020 C   0  0  0  0  0  0  0  0  0  0  0  0
   41.3988   14.0397    7.1489 C   0  0  0  0  0  0  0  0  0  0  0  0
   41.4465   10.9667   10.3506 C   0  0  0  0  0  0  0  0  0  0  0  0
   40.7372   11.2930   11.5291 C   0  0  0  0  0  0  0  0  0  0  0  0
   42.5451   12.6886    5.5076 C   0  0  0  0  0  0  0  0  0  0  0  0
   43.7460   15.2929   12.8285 O   0  0  0  0  0  0  0  0  0  0  0  0
   40.0836   13.0339   13.1538 O   0  0  0  0  0  0  0  0  0  0  0  0
   39.4202   12.0479   13.9321 C   0  0  0  0  0  0  0  0  0  0  0  0
   40.2936   11.5483   10.2935 H   0  0  0  0  0  0  0  0  0  0  0  0
   40.5545   14.1221   14.5149 H   0  0  0  0  0  0  0  0  0  0  0  0
   41.0333   12.9168    8.5145 H   0  0  0  0  0  0  0  0  0  0  0  0
   42.3606   11.8965    9.0561 H   0  0  0  0  0  0  0  0  0  0  0  0
   44.6449   12.3392    8.3441 H   0  0  0  0  0  0  0  0  0  0  0  0
   42.8278   15.8051    5.2995 H   0  0  0  0  0  0  0  0  0  0  0  0
   41.4319   14.8759    7.0605 H   0  0  0  0  0  0  0  0  0  0  0  0
   43.6211   16.2139   11.5868 H   0  0  0  0  0  0  0  0  0  0  0  0
   42.2292   15.5995   13.5399 H   0  0  0  0  0  0  0  0  0  0  0  0
   39.5348    9.4217   10.8677 H   0  0  0  0  0  0  0  0  0  0  0  0
   38.2160   10.5018   10.2670 H   0  0  0  0  0  0  0  0  0  0  0  0
   37.8468    9.1031   11.2819 H   0  0  0  0  0  0  0  0  0  0  0  0
   48.0467   12.2639    7.1183 H   0  0  0  0  0  0  0  0  0  0  0  0
   46.5282   11.4035    7.3905 H   0  0  0  0  0  0  0  0  0  0  0  0
   46.9720   12.8367    8.3988 H   0  0  0  0  0  0  0  0  0  0  0  0
   39.7974   12.7129   16.2116 H   0  0  0  0  0  0  0  0  0  0  0  0
   38.0949   12.2863   16.4164 H   0  0  0  0  0  0  0  0  0  0  0  0
   38.4918   13.7924   15.5818 H   0  0  0  0  0  0  0  0  0  0  0  0
   44.1341   15.7805    3.3624 H   0  0  0  0  0  0  0  0  0  0  0  0
   44.7202   17.0093    4.5513 H   0  0  0  0  0  0  0  0  0  0  0  0
   45.7942   16.3812    3.2969 H   0  0  0  0  0  0  0  0  0  0  0  0
   41.0694   11.3950    9.1510 H   0  0  0  0  0  0  0  0  0  0  0  0
   41.9409   13.6502    6.8669 H   0  0  0  0  0  0  0  0  0  0  0  0
   41.3063   11.1901   11.6056 H   0  0  0  0  0  0  0  0  0  0  0  0
   43.3772   10.3951   10.1834 H   0  0  0  0  0  0  0  0  0  0  0  0
   42.1401   13.3188   12.9091 H   0  0  0  0  0  0  0  0  0  0  0  0
   43.3237   12.1952   12.2449 H   0  0  0  0  0  0  0  0  0  0  0  0
   40.7085   15.1365    9.3921 H   0  0  0  0  0  0  0  0  0  0  0  0
   40.1444   14.1016    8.0907 H   0  0  0  0  0  0  0  0  0  0  0  0
   44.7801   10.6997    8.2507 H   0  0  0  0  0  0  0  0  0  0  0  0
   42.9982   11.7182    6.5243 H   0  0  0  0  0  0  0  0  0  0  0  0
   39.1529   12.5312    9.5076 H   0  0  0  0  0  0  0  0  0  0  0  0
   38.7726   14.0926   10.2145 H   0  0  0  0  0  0  0  0  0  0  0  0
   44.4359   14.8228   12.8073 H   0  0  0  0  0  0  0  0  0  0  0  0
   45.6815   16.4048   11.3505 H   0  0  0  0  0  0  0  0  0  0  0  0
   45.1630   16.3613    7.8340 H   0  0  0  0  0  0  0  0  0  0  0  0
   45.2972   11.9287    6.4316 H   0  0  0  0  0  0  0  0  0  0  0  0
   38.8625   11.3834   11.7323 H   0  0  0  0  0  0  0  0  0  0  0  0
   38.3605   12.9790   12.3320 H   0  0  0  0  0  0  0  0  0  0  0  0
   39.6602   12.1179   13.1416 H   0  0  0  0  0  0  0  0  0  0  0  0
   44.2309   14.9913    8.1932 H   0  0  0  0  0  0  0  0  0  0  0  0
   42.2770   16.4121   10.4097 H   0  0  0  0  0  0  0  0  0  0  0  0
   44.5043   12.6954    7.2626 H   0  0  0  0  0  0  0  0  0  0  0  0
   45.7252   13.1340    9.5016 H   0  0  0  0  0  0  0  0  0  0  0  0
   42.4652   11.0462    7.7122 H   0  0  0  0  0  0  0  0  0  0  0  0
   43.8343   11.1150    8.8087 H   0  0  0  0  0  0  0  0  0  0  0  0
   41.9093   15.9702    7.9623 H   0  0  0  0  0  0  0  0  0  0  0  0
   40.5421   15.1967    8.7544 H   0  0  0  0  0  0  0  0  0  0  0  0
   45.7331   14.1845   11.6830 H   0  0  0  0  0  0  0  0  0  0  0  0
   44.3614   16.3945   11.2423 H   0  0  0  0  0  0  0  0  0  0  0  0
   40.8820   14.5749    6.3423 H   0  0  0  0  0  0  0  0  0  0  0  0
   40.7495   13.1992    7.4237 H   0  0  0  0  0  0  0  0  0  0  0  0
   41.5185    9.9252   10.0451 H   0  0  0  0  0  0  0  0  0  0  0  0
   40.2702   10.4784   12.0740 H   0  0  0  0  0  0  0  0  0  0  0  0
   42.0718   13.2338    4.6830 H   0  0  0  0  0  0  0  0  0  0  0  0
   41.9326   11.8066    5.7195 H   0  0  0  0  0  0  0  0  0  0  0  0
   43.5206   12.3538    5.1384 H   0  0  0  0  0  0  0  0  0  0  0  0
   42.8433   14.9454   12.9722 H   0  0  0  0  0  0  0  0  0  0  0  0
   40.1255   11.2945   14.2986 H   0  0  0  0  0  0  0  0  0  0  0  0
   38.9840   12.5466   14.8029 H   0  0  0  0  0  0  0  0  0  0  0  0
   38.6027   11.5840   13.3701 H   0  0  0  0  0  0  0  0  0  0  0  0
  2  1  1  0
  3  1  2  0
  4  1  1  0
  5  3  1  0
  6  7  1  0
  7  4  2  0
  8  2  2  0
  9 12  2  0
 10  2  1  0
 11 14  2  0
 12 13  1  0
 13 10  1  0
 14 15  1  0
 15 13  2  0
 16 21  2  0
 17  5  1  0
 18  6  1  0
 19  9  1  0
 20 11  1  0
 21  4  1  0
 22 17  1  0
 23 19  1  0
 24 18  1  0
 25 20  1  0
 16  8  1  0
  6  5  2  0
 11  9  1  0
 27 26  1  0
 28 26  1  0
 29 27  2  0
 30 26  1  0
 30 31  1  0
 32 28  1  0
 33 27  1  0
 28 34  1  0
 32 35  1  0
 36 41  1  0
 26 37  1  1
 38 39  1  0
 39 30  1  0
 40 29  1  0
 41 37  1  0
 42 33  2  0
 43 42  1  0
 44 40  1  0
 39 45  1  0
 46 36  1  0
 29 31  1  0
 32 36  1  0
 38 34  2  0
 35 33  1  0
 43 40  2  0
 48 47  1  0
 49 47  1  0
 50 48  2  0
 51 47  1  0
 52 51  1  0
 53 49  1  0
 54 62  1  0
 55 48  1  0
 49 56  1  0
 53 57  1  0
 47 58  1  1
 59 60  1  0
 60 51  1  0
 61 50  1  0
 62 58  1  0
 63 55  2  0
 64 63  1  0
 65 54  1  0
 60 66  1  0
 67 61  1  0
 68 67  1  0
 52 50  1  0
 53 54  1  0
 59 56  2  0
 57 55  1  0
 64 61  2  0
  3 69  1  0
  7 70  1  0
 10 71  1  0
 10 72  1  0
 12 73  1  0
 14 74  1  0
 15 75  1  0
 16 76  1  0
 21 77  1  0
 22 78  1  0
 22 79  1  0
 22 80  1  0
 23 81  1  0
 23 82  1  0
 23 83  1  0
 24 84  1  0
 24 85  1  0
 24 86  1  0
 25 87  1  0
 25 88  1  0
 25 89  1  0
 28 90  1  1
 30 91  1  1
 32 92  1  6
 34 93  1  0
 35 94  1  0
 35 95  1  0
 37 96  1  0
 37 97  1  0
 38 98  1  0
 39 99  1  1
 41100  1  0
 41101  1  0
 42102  1  0
 43103  1  0
 44104  1  0
 45105  1  0
 46106  1  0
 46107  1  0
 46108  1  0
 49109  1  1
 51110  1  1
 53111  1  6
 56112  1  0
 57113  1  0
 57114  1  0
 58115  1  0
 58116  1  0
 59117  1  0
 60118  1  1
 62119  1  0
 62120  1  0
 63121  1  0
 64122  1  0
 65123  1  0
 65124  1  0
 65125  1  0
 66126  1  0
 68127  1  0
 68128  1  0
 68129  1  0
M  END
> <Uni-Dock RESULT> 
ENERGY=   -4.685  LOWER_BOUND=    9.691  UPPER_BOUND=   11.084
INTER + INTRA:          -4.685
INTER:                  -4.685
INTRA:                   0.000
UNBOUND:                 0.000

$$$$
