
     RDKit          3D

129139  0  0  0  0  0  0  0  0999 V2000
   49.0048    6.1799   19.3082 C   0  0  0  0  0  0  0  0  0  0  0  0
   47.8706    6.6375   20.0287 C   0  0  0  0  0  0  0  0  0  0  0  0
   49.3323    6.5475   17.9812 C   0  0  0  0  0  0  0  0  0  0  0  0
   49.8696    5.2838   19.9735 C   0  0  0  0  0  0  0  0  0  0  0  0
   50.4709    6.0507   17.3326 C   0  0  0  0  0  0  0  0  0  0  0  0
   51.3235    5.1696   18.0125 C   0  0  0  0  0  0  0  0  0  0  0  0
   51.0136    4.7889   19.3234 C   0  0  0  0  0  0  0  0  0  0  0  0
   47.5979    6.2502   21.3081 N   0  0  0  0  0  0  0  0  0  0  0  0
   47.8614   11.0669   20.7142 C   0  0  0  0  0  0  0  0  0  0  0  0
   46.8613    7.5992   19.4333 C   0  0  0  0  0  0  0  0  0  0  0  0
   48.0481   11.7685   19.5078 C   0  0  0  0  0  0  0  0  0  0  0  0
   47.4873    9.7166   20.6767 C   0  0  0  0  0  0  0  0  0  0  0  0
   47.2880    9.0520   19.4561 C   0  0  0  0  0  0  0  0  0  0  0  0
   47.8436   11.1122   18.2909 C   0  0  0  0  0  0  0  0  0  0  0  0
   47.4579    9.7703   18.2674 C   0  0  0  0  0  0  0  0  0  0  0  0
   48.4482    5.3922   21.8960 C   0  0  0  0  0  0  0  0  0  0  0  0
   50.8334    6.3698   16.0456 O   0  0  0  0  0  0  0  0  0  0  0  0
   52.4216    4.7332   17.3169 O   0  0  0  0  0  0  0  0  0  0  0  0
   48.0627   11.7865   21.8676 O   0  0  0  0  0  0  0  0  0  0  0  0
   48.4177   13.0863   19.6225 O   0  0  0  0  0  0  0  0  0  0  0  0
   49.5780    4.8889   21.2808 C   0  0  0  0  0  0  0  0  0  0  0  0
   49.9493    7.1847   15.2915 C   0  0  0  0  0  0  0  0  0  0  0  0
   47.9149   11.1001   23.1027 C   0  0  0  0  0  0  0  0  0  0  0  0
   53.3629    3.9143   17.9975 C   0  0  0  0  0  0  0  0  0  0  0  0
   48.6882   13.8032   18.4261 C   0  0  0  0  0  0  0  0  0  0  0  0
   48.6413    8.1253   18.4784 C   0  0  2  0  0  0  0  0  0  0  0  0
   50.0455    7.7646   18.8410 C   0  0  0  0  0  0  0  0  0  0  0  0
   47.8741    8.3887   19.7828 C   0  0  2  0  0  0  0  0  0  0  0  0
   50.5007    6.7261   18.0669 C   0  0  0  0  0  0  0  0  0  0  0  0
   48.2875    6.8361   17.6959 C   0  0  1  0  0  0  0  0  0  0  0  0
   49.5467    6.2270   17.2234 O   0  0  0  0  0  0  0  0  0  0  0  0
   48.6120    9.5678   20.4950 C   0  0  1  0  0  0  0  0  0  0  0  0
   50.7815    8.2788   19.8966 C   0  0  0  0  0  0  0  0  0  0  0  0
   47.7107    7.1302   20.6048 C   0  0  0  0  0  0  0  0  0  0  0  0
   50.1047    9.2252   20.8542 C   0  0  0  0  0  0  0  0  0  0  0  0
   48.5577   10.8151   19.6823 N   0  0  0  0  0  0  0  0  0  0  0  0
   48.6064    9.3841   17.5918 C   0  0  0  0  0  0  0  0  0  0  0  0
   47.5222    5.9432   20.0033 C   0  0  0  0  0  0  0  0  0  0  0  0
   47.4408    5.8156   18.5054 C   0  0  2  0  0  0  0  0  0  0  0  0
   51.7765    6.2360   18.2258 C   0  0  0  0  0  0  0  0  0  0  0  0
   49.0963   10.6395   18.3247 C   0  0  0  0  0  0  0  0  0  0  0  0
   52.0813    7.7888   20.0728 C   0  0  0  0  0  0  0  0  0  0  0  0
   52.5805    6.7785   19.2265 C   0  0  0  0  0  0  0  0  0  0  0  0
   52.2443    5.2200   17.4549 O   0  0  0  0  0  0  0  0  0  0  0  0
   47.7400    4.4792   18.1245 O   0  0  0  0  0  0  0  0  0  0  0  0
   47.2245   11.4200   19.6613 C   0  0  0  0  0  0  0  0  0  0  0  0
   49.8198    7.8403   18.3384 C   0  0  2  0  0  0  0  0  0  0  0  0
   48.9409    8.5916   19.2927 C   0  0  0  0  0  0  0  0  0  0  0  0
   50.2270    6.5118   18.9855 C   0  0  2  0  0  0  0  0  0  0  0  0
   49.1622    9.9508   19.1910 C   0  0  0  0  0  0  0  0  0  0  0  0
   50.8902    8.9393   18.1784 C   0  0  1  0  0  0  0  0  0  0  0  0
   50.2223   10.2392   18.3610 O   0  0  0  0  0  0  0  0  0  0  0  0
   48.8823    5.7832   19.3473 C   0  0  2  0  0  0  0  0  0  0  0  0
   47.9820    5.6259   18.1717 N   0  0  0  0  0  0  0  0  0  0  0  0
   48.0691    8.0518   20.2201 C   0  0  0  0  0  0  0  0  0  0  0  0
   51.1921    6.6917   20.1294 C   0  0  0  0  0  0  0  0  0  0  0  0
   48.0773    6.5602   20.4349 C   0  0  0  0  0  0  0  0  0  0  0  0
   49.0341    7.5751   17.0290 C   0  0  0  0  0  0  0  0  0  0  0  0
   52.0289    7.7388   20.1909 C   0  0  0  0  0  0  0  0  0  0  0  0
   52.1095    8.8153   19.1461 C   0  0  2  0  0  0  0  0  0  0  0  0
   48.4160   10.8613   19.9196 C   0  0  0  0  0  0  0  0  0  0  0  0
   48.5329    6.1279   16.9145 C   0  0  0  0  0  0  0  0  0  0  0  0
   47.3238    8.9447   20.9886 C   0  0  0  0  0  0  0  0  0  0  0  0
   47.4797   10.3374   20.8225 C   0  0  0  0  0  0  0  0  0  0  0  0
   47.4900    4.2577   18.0395 C   0  0  0  0  0  0  0  0  0  0  0  0
   52.4062   10.0438   19.8139 O   0  0  0  0  0  0  0  0  0  0  0  0
   48.6872   12.1833   19.7182 O   0  0  0  0  0  0  0  0  0  0  0  0
   47.7279   13.1050   20.2187 C   0  0  0  0  0  0  0  0  0  0  0  0
   48.6809    7.2343   17.4573 H   0  0  0  0  0  0  0  0  0  0  0  0
   51.6551    4.0958   19.8603 H   0  0  0  0  0  0  0  0  0  0  0  0
   46.6058    7.2809   18.4185 H   0  0  0  0  0  0  0  0  0  0  0  0
   45.9197    7.5198   19.9942 H   0  0  0  0  0  0  0  0  0  0  0  0
   47.3411    9.1523   21.5930 H   0  0  0  0  0  0  0  0  0  0  0  0
   47.9734   11.6174   17.3390 H   0  0  0  0  0  0  0  0  0  0  0  0
   47.2944    9.2879   17.3012 H   0  0  0  0  0  0  0  0  0  0  0  0
   48.1921    5.1056   22.9124 H   0  0  0  0  0  0  0  0  0  0  0  0
   50.2152    4.1979   21.8230 H   0  0  0  0  0  0  0  0  0  0  0  0
   49.8720    8.1857   15.7271 H   0  0  0  0  0  0  0  0  0  0  0  0
   48.9638    6.7165   15.1915 H   0  0  0  0  0  0  0  0  0  0  0  0
   50.3679    7.2912   14.2857 H   0  0  0  0  0  0  0  0  0  0  0  0
   48.1118   11.8163   23.9061 H   0  0  0  0  0  0  0  0  0  0  0  0
   48.6481   10.2907   23.1928 H   0  0  0  0  0  0  0  0  0  0  0  0
   46.8931   10.7291   23.2312 H   0  0  0  0  0  0  0  0  0  0  0  0
   53.7493    4.4102   18.8917 H   0  0  0  0  0  0  0  0  0  0  0  0
   52.9275    2.9409   18.2360 H   0  0  0  0  0  0  0  0  0  0  0  0
   54.2076    3.7457   17.3235 H   0  0  0  0  0  0  0  0  0  0  0  0
   47.7912   13.8919   17.8050 H   0  0  0  0  0  0  0  0  0  0  0  0
   48.9970   14.8158   18.7040 H   0  0  0  0  0  0  0  0  0  0  0  0
   49.5129   13.3470   17.8674 H   0  0  0  0  0  0  0  0  0  0  0  0
   46.8487    8.7073   19.5489 H   0  0  0  0  0  0  0  0  0  0  0  0
   47.7242    7.0775   16.7839 H   0  0  0  0  0  0  0  0  0  0  0  0
   48.1173    9.7809   21.4523 H   0  0  0  0  0  0  0  0  0  0  0  0
   47.7040    7.1995   21.6891 H   0  0  0  0  0  0  0  0  0  0  0  0
   50.6938   10.1463   20.9520 H   0  0  0  0  0  0  0  0  0  0  0  0
   50.1056    8.7421   21.8402 H   0  0  0  0  0  0  0  0  0  0  0  0
   47.5742    9.5490   17.2506 H   0  0  0  0  0  0  0  0  0  0  0  0
   49.2151    9.2435   16.6883 H   0  0  0  0  0  0  0  0  0  0  0  0
   47.3514    5.0535   20.6015 H   0  0  0  0  0  0  0  0  0  0  0  0
   46.3861    5.9800   18.2467 H   0  0  0  0  0  0  0  0  0  0  0  0
   48.8804   11.5236   17.7121 H   0  0  0  0  0  0  0  0  0  0  0  0
   50.1913   10.6192   18.3860 H   0  0  0  0  0  0  0  0  0  0  0  0
   52.7035    8.1628   20.8833 H   0  0  0  0  0  0  0  0  0  0  0  0
   53.5887    6.3924   19.3762 H   0  0  0  0  0  0  0  0  0  0  0  0
   51.5722    5.0898   16.7542 H   0  0  0  0  0  0  0  0  0  0  0  0
   48.5984    4.2600   18.5376 H   0  0  0  0  0  0  0  0  0  0  0  0
   46.4928   10.8252   19.1077 H   0  0  0  0  0  0  0  0  0  0  0  0
   46.8490   11.5715   20.6789 H   0  0  0  0  0  0  0  0  0  0  0  0
   47.2684   12.4118   19.1985 H   0  0  0  0  0  0  0  0  0  0  0  0
   50.7685    5.8913   18.2563 H   0  0  0  0  0  0  0  0  0  0  0  0
   51.2880    8.9473   17.1559 H   0  0  0  0  0  0  0  0  0  0  0  0
   49.1377    4.7971   19.7581 H   0  0  0  0  0  0  0  0  0  0  0  0
   51.2283    5.9294   20.9037 H   0  0  0  0  0  0  0  0  0  0  0  0
   48.5404    6.3672   21.4125 H   0  0  0  0  0  0  0  0  0  0  0  0
   47.0462    6.1870   20.4934 H   0  0  0  0  0  0  0  0  0  0  0  0
   49.6798    7.7604   16.1589 H   0  0  0  0  0  0  0  0  0  0  0  0
   48.1805    8.2610   16.9307 H   0  0  0  0  0  0  0  0  0  0  0  0
   52.7299    7.8140   21.0178 H   0  0  0  0  0  0  0  0  0  0  0  0
   52.9934    8.5821   18.5350 H   0  0  0  0  0  0  0  0  0  0  0  0
   47.7633    6.1012   16.1341 H   0  0  0  0  0  0  0  0  0  0  0  0
   49.3475    5.4809   16.5619 H   0  0  0  0  0  0  0  0  0  0  0  0
   46.6309    8.5687   21.7392 H   0  0  0  0  0  0  0  0  0  0  0  0
   46.8789   10.9879   21.4523 H   0  0  0  0  0  0  0  0  0  0  0  0
   48.3024    3.5398   17.8800 H   0  0  0  0  0  0  0  0  0  0  0  0
   46.9353    3.9636   18.9344 H   0  0  0  0  0  0  0  0  0  0  0  0
   46.7936    4.1757   17.1986 H   0  0  0  0  0  0  0  0  0  0  0  0
   51.6580   10.6474   19.6239 H   0  0  0  0  0  0  0  0  0  0  0  0
   46.7210   12.8746   19.8503 H   0  0  0  0  0  0  0  0  0  0  0  0
   47.9957   14.1019   19.8499 H   0  0  0  0  0  0  0  0  0  0  0  0
   47.7513   13.1375   21.3138 H   0  0  0  0  0  0  0  0  0  0  0  0
  2  1  1  0
  3  1  2  0
  4  1  1  0
  5  3  1  0
  6  7  1  0
  7  4  2  0
  8  2  2  0
  9 12  2  0
 10  2  1  0
 11 14  2  0
 12 13  1  0
 13 10  1  0
 14 15  1  0
 15 13  2  0
 16 21  2  0
 17  5  1  0
 18  6  1  0
 19  9  1  0
 20 11  1  0
 21  4  1  0
 22 17  1  0
 23 19  1  0
 24 18  1  0
 25 20  1  0
 16  8  1  0
  6  5  2  0
 11  9  1  0
 27 26  1  0
 28 26  1  0
 29 27  2  0
 30 26  1  0
 30 31  1  0
 32 28  1  0
 33 27  1  0
 28 34  1  0
 32 35  1  0
 36 41  1  0
 26 37  1  1
 38 39  1  0
 39 30  1  0
 40 29  1  0
 41 37  1  0
 42 33  2  0
 43 42  1  0
 44 40  1  0
 39 45  1  0
 46 36  1  0
 29 31  1  0
 32 36  1  0
 38 34  2  0
 35 33  1  0
 43 40  2  0
 48 47  1  0
 49 47  1  0
 50 48  2  0
 51 47  1  0
 52 51  1  0
 53 49  1  0
 54 62  1  0
 55 48  1  0
 49 56  1  0
 53 57  1  0
 47 58  1  1
 59 60  1  0
 60 51  1  0
 61 50  1  0
 62 58  1  0
 63 55  2  0
 64 63  1  0
 65 54  1  0
 60 66  1  0
 67 61  1  0
 68 67  1  0
 52 50  1  0
 53 54  1  0
 59 56  2  0
 57 55  1  0
 64 61  2  0
  3 69  1  0
  7 70  1  0
 10 71  1  0
 10 72  1  0
 12 73  1  0
 14 74  1  0
 15 75  1  0
 16 76  1  0
 21 77  1  0
 22 78  1  0
 22 79  1  0
 22 80  1  0
 23 81  1  0
 23 82  1  0
 23 83  1  0
 24 84  1  0
 24 85  1  0
 24 86  1  0
 25 87  1  0
 25 88  1  0
 25 89  1  0
 28 90  1  1
 30 91  1  1
 32 92  1  6
 34 93  1  0
 35 94  1  0
 35 95  1  0
 37 96  1  0
 37 97  1  0
 38 98  1  0
 39 99  1  1
 41100  1  0
 41101  1  0
 42102  1  0
 43103  1  0
 44104  1  0
 45105  1  0
 46106  1  0
 46107  1  0
 46108  1  0
 49109  1  1
 51110  1  1
 53111  1  6
 56112  1  0
 57113  1  0
 57114  1  0
 58115  1  0
 58116  1  0
 59117  1  0
 60118  1  1
 62119  1  0
 62120  1  0
 63121  1  0
 64122  1  0
 65123  1  0
 65124  1  0
 65125  1  0
 66126  1  0
 68127  1  0
 68128  1  0
 68129  1  0
M  END
> <Uni-Dock RESULT> 
ENERGY=   -6.581  LOWER_BOUND=    0.000  UPPER_BOUND=    0.000
INTER + INTRA:          -6.581
INTER:                  -6.581
INTRA:                   0.000
UNBOUND:                 0.000

$$$$

     RDKit          3D

129139  0  0  0  0  0  0  0  0999 V2000
   49.3111    5.8297   20.4224 C   0  0  0  0  0  0  0  0  0  0  0  0
   48.0040    6.3518   20.2384 C   0  0  0  0  0  0  0  0  0  0  0  0
   50.2746    5.6609   19.3993 C   0  0  0  0  0  0  0  0  0  0  0  0
   49.6712    5.4470   21.7328 C   0  0  0  0  0  0  0  0  0  0  0  0
   51.5474    5.1344   19.6576 C   0  0  0  0  0  0  0  0  0  0  0  0
   51.8907    4.7691   20.9669 C   0  0  0  0  0  0  0  0  0  0  0  0
   50.9495    4.9224   21.9917 C   0  0  0  0  0  0  0  0  0  0  0  0
   47.1101    6.4923   21.2594 N   0  0  0  0  0  0  0  0  0  0  0  0
   47.9655   10.5974   18.8022 C   0  0  0  0  0  0  0  0  0  0  0  0
   47.4887    6.7985   18.8845 C   0  0  0  0  0  0  0  0  0  0  0  0
   48.7706   10.7544   17.6578 C   0  0  0  0  0  0  0  0  0  0  0  0
   47.5658    9.3124   19.1941 C   0  0  0  0  0  0  0  0  0  0  0  0
   47.9483    8.1778   18.4608 C   0  0  0  0  0  0  0  0  0  0  0  0
   49.1474    9.6279   16.9212 C   0  0  0  0  0  0  0  0  0  0  0  0
   48.7313    8.3543   17.3147 C   0  0  0  0  0  0  0  0  0  0  0  0
   47.4984    6.1090   22.4871 C   0  0  0  0  0  0  0  0  0  0  0  0
   52.5181    4.9446   18.7031 O   0  0  0  0  0  0  0  0  0  0  0  0
   53.1557    4.2704   21.1436 O   0  0  0  0  0  0  0  0  0  0  0  0
   47.6216   11.7537   19.4607 O   0  0  0  0  0  0  0  0  0  0  0  0
   49.1260   12.0417   17.3371 O   0  0  0  0  0  0  0  0  0  0  0  0
   48.7466    5.5890   22.7697 C   0  0  0  0  0  0  0  0  0  0  0  0
   52.1794    5.2146   17.3515 C   0  0  0  0  0  0  0  0  0  0  0  0
   46.8371   11.6286   20.6386 C   0  0  0  0  0  0  0  0  0  0  0  0
   53.5799    3.9756   22.4676 C   0  0  0  0  0  0  0  0  0  0  0  0
   50.0000   12.2302   16.2329 C   0  0  0  0  0  0  0  0  0  0  0  0
   49.5397    7.1653   18.7582 C   0  0  2  0  0  0  0  0  0  0  0  0
   50.5539    7.2244   19.8541 C   0  0  0  0  0  0  0  0  0  0  0  0
   48.2497    7.8167   19.2787 C   0  0  2  0  0  0  0  0  0  0  0  0
   51.2582    6.0486   19.9348 C   0  0  0  0  0  0  0  0  0  0  0  0
   49.5290    5.6286   18.5632 C   0  0  1  0  0  0  0  0  0  0  0  0
   50.8117    5.0946   19.0623 O   0  0  0  0  0  0  0  0  0  0  0  0
   48.6205    9.2889   19.6491 C   0  0  1  0  0  0  0  0  0  0  0  0
   50.7078    8.2443   20.7797 C   0  0  0  0  0  0  0  0  0  0  0  0
   47.6156    7.0057   20.3862 C   0  0  0  0  0  0  0  0  0  0  0  0
   49.7145    9.3774   20.7760 C   0  0  0  0  0  0  0  0  0  0  0  0
   49.0605   10.0579   18.4515 N   0  0  0  0  0  0  0  0  0  0  0  0
   50.0336    7.9170   17.5081 C   0  0  0  0  0  0  0  0  0  0  0  0
   47.6661    5.6629   20.3619 C   0  0  0  0  0  0  0  0  0  0  0  0
   48.3249    4.9128   19.2350 C   0  0  2  0  0  0  0  0  0  0  0  0
   52.2525    5.8863   20.8718 C   0  0  0  0  0  0  0  0  0  0  0  0
   50.1844    9.4253   17.7442 C   0  0  0  0  0  0  0  0  0  0  0  0
   51.7144    8.0931   21.7413 C   0  0  0  0  0  0  0  0  0  0  0  0
   52.4943    6.9197   21.7749 C   0  0  0  0  0  0  0  0  0  0  0  0
   52.9677    4.7340   20.9508 O   0  0  0  0  0  0  0  0  0  0  0  0
   48.6793    3.6083   19.6745 O   0  0  0  0  0  0  0  0  0  0  0  0
   47.9564   10.3709   17.5422 C   0  0  0  0  0  0  0  0  0  0  0  0
   50.6110    7.0461   19.3305 C   0  0  2  0  0  0  0  0  0  0  0  0
   49.4306    7.9701   19.3155 C   0  0  0  0  0  0  0  0  0  0  0  0
   50.5532    6.1937   20.6031 C   0  0  2  0  0  0  0  0  0  0  0  0
   49.7670    9.1801   18.7414 C   0  0  0  0  0  0  0  0  0  0  0  0
   51.6946    8.1388   19.2256 C   0  0  1  0  0  0  0  0  0  0  0  0
   51.1155    9.2675   18.4774 O   0  0  0  0  0  0  0  0  0  0  0  0
   49.1581    5.4709   20.5699 C   0  0  2  0  0  0  0  0  0  0  0  0
   48.9456    4.6935   19.3178 N   0  0  0  0  0  0  0  0  0  0  0  0
   48.1800    7.7292   19.8534 C   0  0  0  0  0  0  0  0  0  0  0  0
   50.8391    6.9888   21.8514 C   0  0  0  0  0  0  0  0  0  0  0  0
   47.9778    6.4855   20.6802 C   0  0  0  0  0  0  0  0  0  0  0  0
   50.5564    6.1354   18.0776 C   0  0  0  0  0  0  0  0  0  0  0  0
   51.6073    8.0888   21.8290 C   0  0  0  0  0  0  0  0  0  0  0  0
   52.2667    8.6308   20.5928 C   0  0  2  0  0  0  0  0  0  0  0  0
   48.8238   10.1746   18.5460 C   0  0  0  0  0  0  0  0  0  0  0  0
   50.0777    4.7107   18.3937 C   0  0  0  0  0  0  0  0  0  0  0  0
   47.2167    8.7247   19.6966 C   0  0  0  0  0  0  0  0  0  0  0  0
   47.5304    9.9270   19.0278 C   0  0  0  0  0  0  0  0  0  0  0  0
   48.4891    3.3337   19.5899 C   0  0  0  0  0  0  0  0  0  0  0  0
   52.2802   10.0562   20.7001 O   0  0  0  0  0  0  0  0  0  0  0  0
   49.2500   11.3181   17.9355 O   0  0  0  0  0  0  0  0  0  0  0  0
   48.2352   12.1927   17.4607 C   0  0  0  0  0  0  0  0  0  0  0  0
   50.0154    5.9504   18.3897 H   0  0  0  0  0  0  0  0  0  0  0  0
   51.1932    4.6311   23.0095 H   0  0  0  0  0  0  0  0  0  0  0  0
   47.7451    6.0500   18.1293 H   0  0  0  0  0  0  0  0  0  0  0  0
   46.3900    6.8056   18.9062 H   0  0  0  0  0  0  0  0  0  0  0  0
   46.9483    9.1644   20.0751 H   0  0  0  0  0  0  0  0  0  0  0  0
   49.7641    9.7056   16.0314 H   0  0  0  0  0  0  0  0  0  0  0  0
   49.0322    7.4943   16.7123 H   0  0  0  0  0  0  0  0  0  0  0  0
   46.7555    6.2329   23.2704 H   0  0  0  0  0  0  0  0  0  0  0  0
   48.9842    5.3012   23.7886 H   0  0  0  0  0  0  0  0  0  0  0  0
   51.9672    6.2784   17.2063 H   0  0  0  0  0  0  0  0  0  0  0  0
   51.3415    4.5921   17.0190 H   0  0  0  0  0  0  0  0  0  0  0  0
   53.0456    4.9608   16.7322 H   0  0  0  0  0  0  0  0  0  0  0  0
   46.6616   12.6356   21.0289 H   0  0  0  0  0  0  0  0  0  0  0  0
   47.3726   11.0627   21.4092 H   0  0  0  0  0  0  0  0  0  0  0  0
   45.8618   11.1820   20.4207 H   0  0  0  0  0  0  0  0  0  0  0  0
   53.5088    4.8545   23.1137 H   0  0  0  0  0  0  0  0  0  0  0  0
   53.0173    3.1324   22.8753 H   0  0  0  0  0  0  0  0  0  0  0  0
   54.6330    3.6837   22.4235 H   0  0  0  0  0  0  0  0  0  0  0  0
   49.5342   11.9039   15.2977 H   0  0  0  0  0  0  0  0  0  0  0  0
   50.2011   13.3024   16.1432 H   0  0  0  0  0  0  0  0  0  0  0  0
   50.9589   11.7257   16.3946 H   0  0  0  0  0  0  0  0  0  0  0  0
   47.4976    7.8358   18.4777 H   0  0  0  0  0  0  0  0  0  0  0  0
   49.5066    5.3728   17.4948 H   0  0  0  0  0  0  0  0  0  0  0  0
   47.7345    9.7960   20.0545 H   0  0  0  0  0  0  0  0  0  0  0  0
   47.0802    7.5172   21.1813 H   0  0  0  0  0  0  0  0  0  0  0  0
   50.2412   10.3390   20.7207 H   0  0  0  0  0  0  0  0  0  0  0  0
   49.1959    9.3552   21.7436 H   0  0  0  0  0  0  0  0  0  0  0  0
   49.3179    7.7529   16.6897 H   0  0  0  0  0  0  0  0  0  0  0  0
   50.9971    7.5160   17.1654 H   0  0  0  0  0  0  0  0  0  0  0  0
   47.1615    5.0875   21.1319 H   0  0  0  0  0  0  0  0  0  0  0  0
   47.5490    4.7787   18.4693 H   0  0  0  0  0  0  0  0  0  0  0  0
   50.3605    9.9260   16.7840 H   0  0  0  0  0  0  0  0  0  0  0  0
   51.1026    9.6128   18.3143 H   0  0  0  0  0  0  0  0  0  0  0  0
   51.8806    8.8669   22.4879 H   0  0  0  0  0  0  0  0  0  0  0  0
   53.2683    6.8025   22.5333 H   0  0  0  0  0  0  0  0  0  0  0  0
   52.7210    4.2156   20.1570 H   0  0  0  0  0  0  0  0  0  0  0  0
   49.2051    3.7252   20.4902 H   0  0  0  0  0  0  0  0  0  0  0  0
   47.5533    9.4883   17.0380 H   0  0  0  0  0  0  0  0  0  0  0  0
   47.1397   10.8675   18.0768 H   0  0  0  0  0  0  0  0  0  0  0  0
   48.2914   11.0729   16.7710 H   0  0  0  0  0  0  0  0  0  0  0  0
   51.3392    5.4247   20.5740 H   0  0  0  0  0  0  0  0  0  0  0  0
   52.5441    7.7865   18.6272 H   0  0  0  0  0  0  0  0  0  0  0  0
   49.1087    4.8016   21.4394 H   0  0  0  0  0  0  0  0  0  0  0  0
   50.4360    6.6347   22.7970 H   0  0  0  0  0  0  0  0  0  0  0  0
   47.8843    6.7954   21.7302 H   0  0  0  0  0  0  0  0  0  0  0  0
   47.0287    6.0063   20.4054 H   0  0  0  0  0  0  0  0  0  0  0  0
   51.5581    6.0458   17.6338 H   0  0  0  0  0  0  0  0  0  0  0  0
   49.9121    6.5675   17.2987 H   0  0  0  0  0  0  0  0  0  0  0  0
   51.8130    8.6151   22.7572 H   0  0  0  0  0  0  0  0  0  0  0  0
   53.3184    8.3137   20.6438 H   0  0  0  0  0  0  0  0  0  0  0  0
   49.7930    4.2358   17.4475 H   0  0  0  0  0  0  0  0  0  0  0  0
   50.9132    4.1195   18.7925 H   0  0  0  0  0  0  0  0  0  0  0  0
   46.2197    8.5862   20.1110 H   0  0  0  0  0  0  0  0  0  0  0  0
   46.7441   10.6718   18.9399 H   0  0  0  0  0  0  0  0  0  0  0  0
   49.2225    2.7589   20.1665 H   0  0  0  0  0  0  0  0  0  0  0  0
   47.5465    3.3512   20.1434 H   0  0  0  0  0  0  0  0  0  0  0  0
   48.2937    2.7962   18.6562 H   0  0  0  0  0  0  0  0  0  0  0  0
   51.7668   10.3939   19.9369 H   0  0  0  0  0  0  0  0  0  0  0  0
   47.5275   11.6677   16.8079 H   0  0  0  0  0  0  0  0  0  0  0  0
   48.7183   12.9753   16.8642 H   0  0  0  0  0  0  0  0  0  0  0  0
   47.7181   12.6807   18.2945 H   0  0  0  0  0  0  0  0  0  0  0  0
  2  1  1  0
  3  1  2  0
  4  1  1  0
  5  3  1  0
  6  7  1  0
  7  4  2  0
  8  2  2  0
  9 12  2  0
 10  2  1  0
 11 14  2  0
 12 13  1  0
 13 10  1  0
 14 15  1  0
 15 13  2  0
 16 21  2  0
 17  5  1  0
 18  6  1  0
 19  9  1  0
 20 11  1  0
 21  4  1  0
 22 17  1  0
 23 19  1  0
 24 18  1  0
 25 20  1  0
 16  8  1  0
  6  5  2  0
 11  9  1  0
 27 26  1  0
 28 26  1  0
 29 27  2  0
 30 26  1  0
 30 31  1  0
 32 28  1  0
 33 27  1  0
 28 34  1  0
 32 35  1  0
 36 41  1  0
 26 37  1  1
 38 39  1  0
 39 30  1  0
 40 29  1  0
 41 37  1  0
 42 33  2  0
 43 42  1  0
 44 40  1  0
 39 45  1  0
 46 36  1  0
 29 31  1  0
 32 36  1  0
 38 34  2  0
 35 33  1  0
 43 40  2  0
 48 47  1  0
 49 47  1  0
 50 48  2  0
 51 47  1  0
 52 51  1  0
 53 49  1  0
 54 62  1  0
 55 48  1  0
 49 56  1  0
 53 57  1  0
 47 58  1  1
 59 60  1  0
 60 51  1  0
 61 50  1  0
 62 58  1  0
 63 55  2  0
 64 63  1  0
 65 54  1  0
 60 66  1  0
 67 61  1  0
 68 67  1  0
 52 50  1  0
 53 54  1  0
 59 56  2  0
 57 55  1  0
 64 61  2  0
  3 69  1  0
  7 70  1  0
 10 71  1  0
 10 72  1  0
 12 73  1  0
 14 74  1  0
 15 75  1  0
 16 76  1  0
 21 77  1  0
 22 78  1  0
 22 79  1  0
 22 80  1  0
 23 81  1  0
 23 82  1  0
 23 83  1  0
 24 84  1  0
 24 85  1  0
 24 86  1  0
 25 87  1  0
 25 88  1  0
 25 89  1  0
 28 90  1  1
 30 91  1  1
 32 92  1  6
 34 93  1  0
 35 94  1  0
 35 95  1  0
 37 96  1  0
 37 97  1  0
 38 98  1  0
 39 99  1  1
 41100  1  0
 41101  1  0
 42102  1  0
 43103  1  0
 44104  1  0
 45105  1  0
 46106  1  0
 46107  1  0
 46108  1  0
 49109  1  1
 51110  1  1
 53111  1  6
 56112  1  0
 57113  1  0
 57114  1  0
 58115  1  0
 58116  1  0
 59117  1  0
 60118  1  1
 62119  1  0
 62120  1  0
 63121  1  0
 64122  1  0
 65123  1  0
 65124  1  0
 65125  1  0
 66126  1  0
 68127  1  0
 68128  1  0
 68129  1  0
M  END
> <Uni-Dock RESULT> 
ENERGY=   -6.061  LOWER_BOUND=    1.427  UPPER_BOUND=    2.055
INTER + INTRA:          -6.061
INTER:                  -6.061
INTRA:                   0.000
UNBOUND:                 0.000

$$$$

     RDKit          3D

129139  0  0  0  0  0  0  0  0999 V2000
   48.9118   11.6006   19.7482 C   0  0  0  0  0  0  0  0  0  0  0  0
   47.8650   10.7892   19.2374 C   0  0  0  0  0  0  0  0  0  0  0  0
   49.0996   11.9283   21.1123 C   0  0  0  0  0  0  0  0  0  0  0  0
   49.8339   12.1220   18.8149 C   0  0  0  0  0  0  0  0  0  0  0  0
   50.1579   12.7402   21.5420 C   0  0  0  0  0  0  0  0  0  0  0  0
   51.0697   13.2408   20.6019 C   0  0  0  0  0  0  0  0  0  0  0  0
   50.8975   12.9333   19.2471 C   0  0  0  0  0  0  0  0  0  0  0  0
   47.7264   10.5046   17.9103 N   0  0  0  0  0  0  0  0  0  0  0  0
   47.9707    6.5749   20.7598 C   0  0  0  0  0  0  0  0  0  0  0  0
   46.8072   10.1683   20.1283 C   0  0  0  0  0  0  0  0  0  0  0  0
   48.0346    6.5437   22.1660 C   0  0  0  0  0  0  0  0  0  0  0  0
   47.5820    7.7557   20.1124 C   0  0  0  0  0  0  0  0  0  0  0  0
   47.2476    8.9076   20.8423 C   0  0  0  0  0  0  0  0  0  0  0  0
   47.6955    7.6862   22.8962 C   0  0  0  0  0  0  0  0  0  0  0  0
   47.2968    8.8524   22.2396 C   0  0  0  0  0  0  0  0  0  0  0  0
   48.6263   11.0286   17.0615 C   0  0  0  0  0  0  0  0  0  0  0  0
   50.3843   13.0935   22.8509 O   0  0  0  0  0  0  0  0  0  0  0  0
   52.0833   14.0196   21.0979 O   0  0  0  0  0  0  0  0  0  0  0  0
   48.3005    5.4067   20.1152 O   0  0  0  0  0  0  0  0  0  0  0  0
   48.4267    5.3544   22.7300 O   0  0  0  0  0  0  0  0  0  0  0  0
   49.6793   11.8298   17.4581 C   0  0  0  0  0  0  0  0  0  0  0  0
   49.4327   12.6844   23.8213 C   0  0  0  0  0  0  0  0  0  0  0  0
   48.2785    5.4133   18.6947 C   0  0  0  0  0  0  0  0  0  0  0  0
   53.0839   14.4706   20.1950 C   0  0  0  0  0  0  0  0  0  0  0  0
   48.5751    5.3101   24.1423 C   0  0  0  0  0  0  0  0  0  0  0  0
   48.4804   10.2660   21.3725 C   0  0  2  0  0  0  0  0  0  0  0  0
   49.9117   10.4935   21.0079 C   0  0  0  0  0  0  0  0  0  0  0  0
   47.8589    9.3692   20.2913 C   0  0  2  0  0  0  0  0  0  0  0  0
   50.2721   11.8000   21.2269 C   0  0  0  0  0  0  0  0  0  0  0  0
   48.0331   11.7488   21.4067 C   0  0  1  0  0  0  0  0  0  0  0  0
   49.2290   12.5826   21.6395 O   0  0  0  0  0  0  0  0  0  0  0  0
   48.6795    8.0394   20.2998 C   0  0  1  0  0  0  0  0  0  0  0  0
   50.7607    9.5838   20.3979 C   0  0  0  0  0  0  0  0  0  0  0  0
   47.7720   10.0733   18.9561 C   0  0  0  0  0  0  0  0  0  0  0  0
   50.1986    8.2577   19.9548 C   0  0  0  0  0  0  0  0  0  0  0  0
   48.5509    7.3278   21.6023 N   0  0  0  0  0  0  0  0  0  0  0  0
   48.3632    9.5807   22.7467 C   0  0  0  0  0  0  0  0  0  0  0  0
   47.5093   11.3900   18.8960 C   0  0  0  0  0  0  0  0  0  0  0  0
   47.2678   12.2094   20.1357 C   0  0  2  0  0  0  0  0  0  0  0  0
   51.5529   12.2302   20.9668 C   0  0  0  0  0  0  0  0  0  0  0  0
   48.9402    8.1593   22.7515 C   0  0  0  0  0  0  0  0  0  0  0  0
   52.0672   10.0071   20.1249 C   0  0  0  0  0  0  0  0  0  0  0  0
   52.4639   11.3259   20.4242 C   0  0  0  0  0  0  0  0  0  0  0  0
   51.9264   13.5163   21.1949 O   0  0  0  0  0  0  0  0  0  0  0  0
   47.5120   13.5812   19.8546 O   0  0  0  0  0  0  0  0  0  0  0  0
   47.2288    6.7278   21.7918 C   0  0  0  0  0  0  0  0  0  0  0  0
   49.6345   10.6526   21.4629 C   0  0  2  0  0  0  0  0  0  0  0  0
   48.8694    9.4873   20.9114 C   0  0  0  0  0  0  0  0  0  0  0  0
   50.0957   11.5351   20.2976 C   0  0  2  0  0  0  0  0  0  0  0  0
   49.0914    8.3558   21.6711 C   0  0  0  0  0  0  0  0  0  0  0  0
   50.6921    9.8275   22.2243 C   0  0  1  0  0  0  0  0  0  0  0  0
   50.0598    8.5602   22.6283 O   0  0  0  0  0  0  0  0  0  0  0  0
   48.7904   11.9230   19.5132 C   0  0  2  0  0  0  0  0  0  0  0  0
   47.7686   12.5667   20.3843 N   0  0  0  0  0  0  0  0  0  0  0  0
   48.0962    9.4686   19.7654 C   0  0  0  0  0  0  0  0  0  0  0  0
   51.1787   10.8905   19.4708 C   0  0  0  0  0  0  0  0  0  0  0  0
   48.1131   10.6761   18.8640 C   0  0  0  0  0  0  0  0  0  0  0  0
   48.7114   11.4614   22.4095 C   0  0  0  0  0  0  0  0  0  0  0  0
   52.0272    9.9917   19.9931 C   0  0  0  0  0  0  0  0  0  0  0  0
   52.0063    9.5484   21.4283 C   0  0  2  0  0  0  0  0  0  0  0  0
   48.4356    7.1660   21.4046 C   0  0  0  0  0  0  0  0  0  0  0  0
   48.1872   12.7564   21.7717 C   0  0  0  0  0  0  0  0  0  0  0  0
   47.4453    8.2752   19.4558 C   0  0  0  0  0  0  0  0  0  0  0  0
   47.5958    7.1411   20.2818 C   0  0  0  0  0  0  0  0  0  0  0  0
   47.2524   13.8013   19.8005 C   0  0  0  0  0  0  0  0  0  0  0  0
   52.3840    8.1701   21.4601 O   0  0  0  0  0  0  0  0  0  0  0  0
   48.6963    6.1174   22.2379 O   0  0  0  0  0  0  0  0  0  0  0  0
   47.8045    5.0136   22.1570 C   0  0  0  0  0  0  0  0  0  0  0  0
   48.4026   11.5360   21.8408 H   0  0  0  0  0  0  0  0  0  0  0  0
   51.5859   13.3244   18.5033 H   0  0  0  0  0  0  0  0  0  0  0  0
   46.4421   10.9151   20.8393 H   0  0  0  0  0  0  0  0  0  0  0  0
   45.9300    9.9156   19.5167 H   0  0  0  0  0  0  0  0  0  0  0  0
   47.5288    7.8066   19.0289 H   0  0  0  0  0  0  0  0  0  0  0  0
   47.7280    7.7031   23.9810 H   0  0  0  0  0  0  0  0  0  0  0  0
   47.0269    9.7256   22.8376 H   0  0  0  0  0  0  0  0  0  0  0  0
   48.4771   10.7817   16.0138 H   0  0  0  0  0  0  0  0  0  0  0  0
   50.3641   12.2162   16.7102 H   0  0  0  0  0  0  0  0  0  0  0  0
   49.4118   11.5941   23.9134 H   0  0  0  0  0  0  0  0  0  0  0  0
   48.4379   13.0846   23.5966 H   0  0  0  0  0  0  0  0  0  0  0  0
   49.7429   13.0940   24.7878 H   0  0  0  0  0  0  0  0  0  0  0  0
   48.5664    4.4142   18.3538 H   0  0  0  0  0  0  0  0  0  0  0  0
   49.0094    6.1243   18.2935 H   0  0  0  0  0  0  0  0  0  0  0  0
   47.2727    5.6172   18.3139 H   0  0  0  0  0  0  0  0  0  0  0  0
   53.5680   13.6330   19.6860 H   0  0  0  0  0  0  0  0  0  0  0  0
   52.6672   15.1858   19.4817 H   0  0  0  0  0  0  0  0  0  0  0  0
   53.8505   14.9891   20.7779 H   0  0  0  0  0  0  0  0  0  0  0  0
   47.6180    5.4743   24.6475 H   0  0  0  0  0  0  0  0  0  0  0  0
   48.9213    4.3074   24.4122 H   0  0  0  0  0  0  0  0  0  0  0  0
   49.3313    6.0249   24.4850 H   0  0  0  0  0  0  0  0  0  0  0  0
   46.8174    9.1400   20.5570 H   0  0  0  0  0  0  0  0  0  0  0  0
   47.3783   11.9371   22.2687 H   0  0  0  0  0  0  0  0  0  0  0  0
   48.2916    7.3678   19.5220 H   0  0  0  0  0  0  0  0  0  0  0  0
   47.8814    9.4966   18.0418 H   0  0  0  0  0  0  0  0  0  0  0  0
   50.8035    7.4376   20.3631 H   0  0  0  0  0  0  0  0  0  0  0  0
   50.3000    8.2129   18.8624 H   0  0  0  0  0  0  0  0  0  0  0  0
   47.3022    9.5370   23.0318 H   0  0  0  0  0  0  0  0  0  0  0  0
   48.8709   10.1697   23.5224 H   0  0  0  0  0  0  0  0  0  0  0  0
   47.3948   11.8764   17.9322 H   0  0  0  0  0  0  0  0  0  0  0  0
   46.1932   12.1257   20.3465 H   0  0  0  0  0  0  0  0  0  0  0  0
   48.6687    7.6618   23.6909 H   0  0  0  0  0  0  0  0  0  0  0  0
   50.0353    8.2129   22.7857 H   0  0  0  0  0  0  0  0  0  0  0  0
   52.7757    9.3303   19.6515 H   0  0  0  0  0  0  0  0  0  0  0  0
   53.4786   11.6534   20.1983 H   0  0  0  0  0  0  0  0  0  0  0  0
   51.1822   13.9239   21.6846 H   0  0  0  0  0  0  0  0  0  0  0  0
   48.4074   13.6281   19.4653 H   0  0  0  0  0  0  0  0  0  0  0  0
   46.4367    7.4698   21.9252 H   0  0  0  0  0  0  0  0  0  0  0  0
   46.9651    6.0887   20.9424 H   0  0  0  0  0  0  0  0  0  0  0  0
   47.2325    6.0800   22.6750 H   0  0  0  0  0  0  0  0  0  0  0  0
   50.5506   12.4585   20.6854 H   0  0  0  0  0  0  0  0  0  0  0  0
   50.9789   10.3302   23.1565 H   0  0  0  0  0  0  0  0  0  0  0  0
   49.0787   12.6083   18.7047 H   0  0  0  0  0  0  0  0  0  0  0  0
   51.2899   11.1936   18.4326 H   0  0  0  0  0  0  0  0  0  0  0  0
   48.6757   10.4082   17.9590 H   0  0  0  0  0  0  0  0  0  0  0  0
   47.0905   10.9148   18.5424 H   0  0  0  0  0  0  0  0  0  0  0  0
   49.2626   11.7507   23.3156 H   0  0  0  0  0  0  0  0  0  0  0  0
   47.8587   10.8556   22.7480 H   0  0  0  0  0  0  0  0  0  0  0  0
   52.8129    9.5741   19.3693 H   0  0  0  0  0  0  0  0  0  0  0  0
   52.8179   10.0960   21.9288 H   0  0  0  0  0  0  0  0  0  0  0  0
   47.3388   13.1053   22.3720 H   0  0  0  0  0  0  0  0  0  0  0  0
   48.9536   13.5402   21.8421 H   0  0  0  0  0  0  0  0  0  0  0  0
   46.8327    8.2073   18.5585 H   0  0  0  0  0  0  0  0  0  0  0  0
   47.0717    6.2351   19.9901 H   0  0  0  0  0  0  0  0  0  0  0  0
   48.0363   14.5553   19.6682 H   0  0  0  0  0  0  0  0  0  0  0  0
   46.7933   13.6010   18.8289 H   0  0  0  0  0  0  0  0  0  0  0  0
   46.4697   14.2318   20.4337 H   0  0  0  0  0  0  0  0  0  0  0  0
   51.6256    7.6864   21.8487 H   0  0  0  0  0  0  0  0  0  0  0  0
   46.7620    5.3314   22.2788 H   0  0  0  0  0  0  0  0  0  0  0  0
   48.0409    4.3298   22.9805 H   0  0  0  0  0  0  0  0  0  0  0  0
   47.9446    4.4658   21.2183 H   0  0  0  0  0  0  0  0  0  0  0  0
  2  1  1  0
  3  1  2  0
  4  1  1  0
  5  3  1  0
  6  7  1  0
  7  4  2  0
  8  2  2  0
  9 12  2  0
 10  2  1  0
 11 14  2  0
 12 13  1  0
 13 10  1  0
 14 15  1  0
 15 13  2  0
 16 21  2  0
 17  5  1  0
 18  6  1  0
 19  9  1  0
 20 11  1  0
 21  4  1  0
 22 17  1  0
 23 19  1  0
 24 18  1  0
 25 20  1  0
 16  8  1  0
  6  5  2  0
 11  9  1  0
 27 26  1  0
 28 26  1  0
 29 27  2  0
 30 26  1  0
 30 31  1  0
 32 28  1  0
 33 27  1  0
 28 34  1  0
 32 35  1  0
 36 41  1  0
 26 37  1  1
 38 39  1  0
 39 30  1  0
 40 29  1  0
 41 37  1  0
 42 33  2  0
 43 42  1  0
 44 40  1  0
 39 45  1  0
 46 36  1  0
 29 31  1  0
 32 36  1  0
 38 34  2  0
 35 33  1  0
 43 40  2  0
 48 47  1  0
 49 47  1  0
 50 48  2  0
 51 47  1  0
 52 51  1  0
 53 49  1  0
 54 62  1  0
 55 48  1  0
 49 56  1  0
 53 57  1  0
 47 58  1  1
 59 60  1  0
 60 51  1  0
 61 50  1  0
 62 58  1  0
 63 55  2  0
 64 63  1  0
 65 54  1  0
 60 66  1  0
 67 61  1  0
 68 67  1  0
 52 50  1  0
 53 54  1  0
 59 56  2  0
 57 55  1  0
 64 61  2  0
  3 69  1  0
  7 70  1  0
 10 71  1  0
 10 72  1  0
 12 73  1  0
 14 74  1  0
 15 75  1  0
 16 76  1  0
 21 77  1  0
 22 78  1  0
 22 79  1  0
 22 80  1  0
 23 81  1  0
 23 82  1  0
 23 83  1  0
 24 84  1  0
 24 85  1  0
 24 86  1  0
 25 87  1  0
 25 88  1  0
 25 89  1  0
 28 90  1  1
 30 91  1  1
 32 92  1  6
 34 93  1  0
 35 94  1  0
 35 95  1  0
 37 96  1  0
 37 97  1  0
 38 98  1  0
 39 99  1  1
 41100  1  0
 41101  1  0
 42102  1  0
 43103  1  0
 44104  1  0
 45105  1  0
 46106  1  0
 46107  1  0
 46108  1  0
 49109  1  1
 51110  1  1
 53111  1  6
 56112  1  0
 57113  1  0
 57114  1  0
 58115  1  0
 58116  1  0
 59117  1  0
 60118  1  1
 62119  1  0
 62120  1  0
 63121  1  0
 64122  1  0
 65123  1  0
 65124  1  0
 65125  1  0
 66126  1  0
 68127  1  0
 68128  1  0
 68129  1  0
M  END
> <Uni-Dock RESULT> 
ENERGY=   -5.870  LOWER_BOUND=    2.163  UPPER_BOUND=    6.013
INTER + INTRA:          -5.870
INTER:                  -5.870
INTRA:                   0.000
UNBOUND:                 0.000

$$$$

     RDKit          3D

129139  0  0  0  0  0  0  0  0999 V2000
   49.7375    5.6692   18.2184 C   0  0  0  0  0  0  0  0  0  0  0  0
   48.3917    5.5785   18.6609 C   0  0  0  0  0  0  0  0  0  0  0  0
   50.4455    6.8750   17.9990 C   0  0  0  0  0  0  0  0  0  0  0  0
   50.4170    4.4556   17.9763 C   0  0  0  0  0  0  0  0  0  0  0  0
   51.7755    6.8853   17.5574 C   0  0  0  0  0  0  0  0  0  0  0  0
   52.4374    5.6701   17.3318 C   0  0  0  0  0  0  0  0  0  0  0  0
   51.7524    4.4667   17.5369 C   0  0  0  0  0  0  0  0  0  0  0  0
   47.7526    4.3889   18.8550 N   0  0  0  0  0  0  0  0  0  0  0  0
   47.7388    7.2989   22.7479 C   0  0  0  0  0  0  0  0  0  0  0  0
   47.5471    6.8025   18.9554 C   0  0  0  0  0  0  0  0  0  0  0  0
   48.2434    8.6105   22.8340 C   0  0  0  0  0  0  0  0  0  0  0  0
   47.5273    6.7218   21.4881 C   0  0  0  0  0  0  0  0  0  0  0  0
   47.8032    7.4320   20.3087 C   0  0  0  0  0  0  0  0  0  0  0  0
   48.5123    9.3231   21.6621 C   0  0  0  0  0  0  0  0  0  0  0  0
   48.2846    8.7416   20.4130 C   0  0  0  0  0  0  0  0  0  0  0  0
   48.4404    3.2620   18.6060 C   0  0  0  0  0  0  0  0  0  0  0  0
   52.5079    8.0248   17.3238 O   0  0  0  0  0  0  0  0  0  0  0  0
   53.7390    5.7598   16.9099 O   0  0  0  0  0  0  0  0  0  0  0  0
   47.4817    6.6720   23.9436 O   0  0  0  0  0  0  0  0  0  0  0  0
   48.4284    9.1082   24.1006 O   0  0  0  0  0  0  0  0  0  0  0  0
   49.7517    3.2435   18.1721 C   0  0  0  0  0  0  0  0  0  0  0  0
   51.8469    9.2743   17.4510 C   0  0  0  0  0  0  0  0  0  0  0  0
   47.0029    5.3353   23.8933 C   0  0  0  0  0  0  0  0  0  0  0  0
   54.4782    4.5553   16.7595 C   0  0  0  0  0  0  0  0  0  0  0  0
   49.0070   10.3999   24.2250 C   0  0  0  0  0  0  0  0  0  0  0  0
   49.4836    7.4412   19.4019 C   0  0  2  0  0  0  0  0  0  0  0  0
   50.7187    6.6259   19.6091 C   0  0  0  0  0  0  0  0  0  0  0  0
   48.3098    6.6829   20.0396 C   0  0  2  0  0  0  0  0  0  0  0  0
   51.4988    6.6213   18.4793 C   0  0  0  0  0  0  0  0  0  0  0  0
   49.5297    7.5048   17.8548 C   0  0  1  0  0  0  0  0  0  0  0  0
   50.9258    7.2836   17.4287 O   0  0  0  0  0  0  0  0  0  0  0  0
   48.6582    6.5300   21.5552 C   0  0  1  0  0  0  0  0  0  0  0  0
   51.0157    5.8479   20.7168 C   0  0  0  0  0  0  0  0  0  0  0  0
   48.0059    5.3954   19.3073 C   0  0  0  0  0  0  0  0  0  0  0  0
   49.9759    5.7061   21.7982 C   0  0  0  0  0  0  0  0  0  0  0  0
   48.7555    7.8554   22.2285 N   0  0  0  0  0  0  0  0  0  0  0  0
   49.6222    8.8288   20.0555 C   0  0  0  0  0  0  0  0  0  0  0  0
   48.1383    5.3236   17.9718 C   0  0  0  0  0  0  0  0  0  0  0  0
   48.5650    6.5112   17.1507 C   0  0  2  0  0  0  0  0  0  0  0  0
   52.6923    5.9373   18.4506 C   0  0  0  0  0  0  0  0  0  0  0  0
   49.7234    8.7566   21.5845 C   0  0  0  0  0  0  0  0  0  0  0  0
   52.2262    5.1441   20.7020 C   0  0  0  0  0  0  0  0  0  0  0  0
   53.0685    5.2031   19.5737 C   0  0  0  0  0  0  0  0  0  0  0  0
   53.4810    5.9387   17.3445 O   0  0  0  0  0  0  0  0  0  0  0  0
   49.0977    6.0657   15.9104 O   0  0  0  0  0  0  0  0  0  0  0  0
   47.4519    8.4984   22.4046 C   0  0  0  0  0  0  0  0  0  0  0  0
   50.6641    7.1322   19.3856 C   0  0  2  0  0  0  0  0  0  0  0  0
   49.4540    6.9401   20.2494 C   0  0  0  0  0  0  0  0  0  0  0  0
   50.9606    5.8184   18.6538 C   0  0  2  0  0  0  0  0  0  0  0  0
   49.5667    7.6724   21.4147 C   0  0  0  0  0  0  0  0  0  0  0  0
   51.6187    7.5784   20.5120 C   0  0  1  0  0  0  0  0  0  0  0  0
   50.8079    8.2553   21.5385 O   0  0  0  0  0  0  0  0  0  0  0  0
   49.6471    5.4614   17.8683 C   0  0  2  0  0  0  0  0  0  0  0  0
   49.2011    6.5609   16.9686 N   0  0  0  0  0  0  0  0  0  0  0  0
   48.3817    6.1030   20.0029 C   0  0  0  0  0  0  0  0  0  0  0  0
   51.4757    4.7414   19.5741 C   0  0  0  0  0  0  0  0  0  0  0  0
   48.4602    5.1553   18.8339 C   0  0  0  0  0  0  0  0  0  0  0  0
   50.3801    8.2594   18.3604 C   0  0  0  0  0  0  0  0  0  0  0  0
   52.1429    5.0334   20.7011 C   0  0  0  0  0  0  0  0  0  0  0  0
   52.4592    6.4301   21.1549 C   0  0  2  0  0  0  0  0  0  0  0  0
   48.5401    7.7170   22.3425 C   0  0  0  0  0  0  0  0  0  0  0  0
   50.0835    7.7258   16.9512 C   0  0  0  0  0  0  0  0  0  0  0  0
   47.3445    6.1055   20.9345 C   0  0  0  0  0  0  0  0  0  0  0  0
   47.4136    6.9235   22.0823 C   0  0  0  0  0  0  0  0  0  0  0  0
   48.9116    6.0804   15.6207 C   0  0  0  0  0  0  0  0  0  0  0  0
   52.4028    6.4432   22.5832 O   0  0  0  0  0  0  0  0  0  0  0  0
   48.7358    8.5005   23.4423 O   0  0  0  0  0  0  0  0  0  0  0  0
   47.5827    8.7890   24.2217 C   0  0  0  0  0  0  0  0  0  0  0  0
   49.9399    7.8140   18.1809 H   0  0  0  0  0  0  0  0  0  0  0  0
   52.2450    3.5160   17.3532 H   0  0  0  0  0  0  0  0  0  0  0  0
   47.6699    7.5347   18.1522 H   0  0  0  0  0  0  0  0  0  0  0  0
   46.4857    6.5210   18.9144 H   0  0  0  0  0  0  0  0  0  0  0  0
   47.1430    5.7104   21.3950 H   0  0  0  0  0  0  0  0  0  0  0  0
   48.8985   10.3372   21.6845 H   0  0  0  0  0  0  0  0  0  0  0  0
   48.4933    9.3276   19.5152 H   0  0  0  0  0  0  0  0  0  0  0  0
   47.8936    2.3371   18.7684 H   0  0  0  0  0  0  0  0  0  0  0  0
   50.2384    2.2905   17.9916 H   0  0  0  0  0  0  0  0  0  0  0  0
   51.5367    9.4495   18.4858 H   0  0  0  0  0  0  0  0  0  0  0  0
   50.9978    9.3474   16.7625 H   0  0  0  0  0  0  0  0  0  0  0  0
   52.5601   10.0594   17.1802 H   0  0  0  0  0  0  0  0  0  0  0  0
   46.8567    4.9963   24.9232 H   0  0  0  0  0  0  0  0  0  0  0  0
   47.7392    4.6713   23.4267 H   0  0  0  0  0  0  0  0  0  0  0  0
   46.0354    5.2789   23.3843 H   0  0  0  0  0  0  0  0  0  0  0  0
   54.5013    3.9831   17.6907 H   0  0  0  0  0  0  0  0  0  0  0  0
   54.0830    3.9596   15.9332 H   0  0  0  0  0  0  0  0  0  0  0  0
   55.5091    4.8248   16.5132 H   0  0  0  0  0  0  0  0  0  0  0  0
   48.3591   11.1685   23.7920 H   0  0  0  0  0  0  0  0  0  0  0  0
   49.1102   10.6201   25.2922 H   0  0  0  0  0  0  0  0  0  0  0  0
   50.0085   10.4309   23.7820 H   0  0  0  0  0  0  0  0  0  0  0  0
   47.3924    7.2812   19.9495 H   0  0  0  0  0  0  0  0  0  0  0  0
   49.2763    8.5132   17.4998 H   0  0  0  0  0  0  0  0  0  0  0  0
   47.8592    5.9676   22.0570 H   0  0  0  0  0  0  0  0  0  0  0  0
   47.6375    4.5393   19.8658 H   0  0  0  0  0  0  0  0  0  0  0  0
   50.4104    5.9616   22.7734 H   0  0  0  0  0  0  0  0  0  0  0  0
   49.6993    4.6444   21.8428 H   0  0  0  0  0  0  0  0  0  0  0  0
   48.7482    9.4380   19.7833 H   0  0  0  0  0  0  0  0  0  0  0  0
   50.5039    9.3574   19.6687 H   0  0  0  0  0  0  0  0  0  0  0  0
   47.8660    4.4123   17.4483 H   0  0  0  0  0  0  0  0  0  0  0  0
   47.6429    7.0574   16.9105 H   0  0  0  0  0  0  0  0  0  0  0  0
   49.6377    9.7679   22.0011 H   0  0  0  0  0  0  0  0  0  0  0  0
   50.7346    8.4378   21.8661 H   0  0  0  0  0  0  0  0  0  0  0  0
   52.5098    4.5226   21.5489 H   0  0  0  0  0  0  0  0  0  0  0  0
   54.0038    4.6434   19.5631 H   0  0  0  0  0  0  0  0  0  0  0  0
   53.0913    6.6072   16.7437 H   0  0  0  0  0  0  0  0  0  0  0  0
   49.7899    5.4103   16.1266 H   0  0  0  0  0  0  0  0  0  0  0  0
   47.0020    8.8202   21.4614 H   0  0  0  0  0  0  0  0  0  0  0  0
   46.7510    7.8265   22.9112 H   0  0  0  0  0  0  0  0  0  0  0  0
   47.5510    9.3805   23.0462 H   0  0  0  0  0  0  0  0  0  0  0  0
   51.7674    5.9719   17.9221 H   0  0  0  0  0  0  0  0  0  0  0  0
   52.3271    8.3314   20.1445 H   0  0  0  0  0  0  0  0  0  0  0  0
   49.8458    4.5544   17.2814 H   0  0  0  0  0  0  0  0  0  0  0  0
   51.3280    3.7019   19.2917 H   0  0  0  0  0  0  0  0  0  0  0  0
   48.5932    4.1413   19.2357 H   0  0  0  0  0  0  0  0  0  0  0  0
   47.5072    5.1575   18.2883 H   0  0  0  0  0  0  0  0  0  0  0  0
   51.2547    8.9198   18.2756 H   0  0  0  0  0  0  0  0  0  0  0  0
   49.5450    8.8949   18.6882 H   0  0  0  0  0  0  0  0  0  0  0  0
   52.5236    4.2258   21.3205 H   0  0  0  0  0  0  0  0  0  0  0  0
   53.5126    6.6053   20.8922 H   0  0  0  0  0  0  0  0  0  0  0  0
   49.6186    8.5363   16.3776 H   0  0  0  0  0  0  0  0  0  0  0  0
   51.0262    7.4911   16.4384 H   0  0  0  0  0  0  0  0  0  0  0  0
   46.4827    5.4564   20.7900 H   0  0  0  0  0  0  0  0  0  0  0  0
   46.5808    6.8813   22.7790 H   0  0  0  0  0  0  0  0  0  0  0  0
   49.7955    5.6506   15.1362 H   0  0  0  0  0  0  0  0  0  0  0  0
   48.1246    5.3221   15.6468 H   0  0  0  0  0  0  0  0  0  0  0  0
   48.5405    6.8950   14.9901 H   0  0  0  0  0  0  0  0  0  0  0  0
   51.7047    7.0871   22.8246 H   0  0  0  0  0  0  0  0  0  0  0  0
   46.7789    9.2109   23.6064 H   0  0  0  0  0  0  0  0  0  0  0  0
   47.8609    9.5437   24.9665 H   0  0  0  0  0  0  0  0  0  0  0  0
   47.2426    7.8980   24.7613 H   0  0  0  0  0  0  0  0  0  0  0  0
  2  1  1  0
  3  1  2  0
  4  1  1  0
  5  3  1  0
  6  7  1  0
  7  4  2  0
  8  2  2  0
  9 12  2  0
 10  2  1  0
 11 14  2  0
 12 13  1  0
 13 10  1  0
 14 15  1  0
 15 13  2  0
 16 21  2  0
 17  5  1  0
 18  6  1  0
 19  9  1  0
 20 11  1  0
 21  4  1  0
 22 17  1  0
 23 19  1  0
 24 18  1  0
 25 20  1  0
 16  8  1  0
  6  5  2  0
 11  9  1  0
 27 26  1  0
 28 26  1  0
 29 27  2  0
 30 26  1  0
 30 31  1  0
 32 28  1  0
 33 27  1  0
 28 34  1  0
 32 35  1  0
 36 41  1  0
 26 37  1  1
 38 39  1  0
 39 30  1  0
 40 29  1  0
 41 37  1  0
 42 33  2  0
 43 42  1  0
 44 40  1  0
 39 45  1  0
 46 36  1  0
 29 31  1  0
 32 36  1  0
 38 34  2  0
 35 33  1  0
 43 40  2  0
 48 47  1  0
 49 47  1  0
 50 48  2  0
 51 47  1  0
 52 51  1  0
 53 49  1  0
 54 62  1  0
 55 48  1  0
 49 56  1  0
 53 57  1  0
 47 58  1  1
 59 60  1  0
 60 51  1  0
 61 50  1  0
 62 58  1  0
 63 55  2  0
 64 63  1  0
 65 54  1  0
 60 66  1  0
 67 61  1  0
 68 67  1  0
 52 50  1  0
 53 54  1  0
 59 56  2  0
 57 55  1  0
 64 61  2  0
  3 69  1  0
  7 70  1  0
 10 71  1  0
 10 72  1  0
 12 73  1  0
 14 74  1  0
 15 75  1  0
 16 76  1  0
 21 77  1  0
 22 78  1  0
 22 79  1  0
 22 80  1  0
 23 81  1  0
 23 82  1  0
 23 83  1  0
 24 84  1  0
 24 85  1  0
 24 86  1  0
 25 87  1  0
 25 88  1  0
 25 89  1  0
 28 90  1  1
 30 91  1  1
 32 92  1  6
 34 93  1  0
 35 94  1  0
 35 95  1  0
 37 96  1  0
 37 97  1  0
 38 98  1  0
 39 99  1  1
 41100  1  0
 41101  1  0
 42102  1  0
 43103  1  0
 44104  1  0
 45105  1  0
 46106  1  0
 46107  1  0
 46108  1  0
 49109  1  1
 51110  1  1
 53111  1  6
 56112  1  0
 57113  1  0
 57114  1  0
 58115  1  0
 58116  1  0
 59117  1  0
 60118  1  1
 62119  1  0
 62120  1  0
 63121  1  0
 64122  1  0
 65123  1  0
 65124  1  0
 65125  1  0
 66126  1  0
 68127  1  0
 68128  1  0
 68129  1  0
M  END
> <Uni-Dock RESULT> 
ENERGY=   -5.562  LOWER_BOUND=    2.026  UPPER_BOUND=    3.104
INTER + INTRA:          -5.562
INTER:                  -5.562
INTRA:                   0.000
UNBOUND:                 0.000

$$$$

     RDKit          3D

129139  0  0  0  0  0  0  0  0999 V2000
   54.6810    6.4713    8.5291 C   0  0  0  0  0  0  0  0  0  0  0  0
   54.0642    6.1986    9.7782 C   0  0  0  0  0  0  0  0  0  0  0  0
   54.1774    7.3556    7.5454 C   0  0  0  0  0  0  0  0  0  0  0  0
   55.8917    5.8005    8.2508 C   0  0  0  0  0  0  0  0  0  0  0  0
   54.8426    7.5720    6.3310 C   0  0  0  0  0  0  0  0  0  0  0  0
   56.0490    6.9047    6.0762 C   0  0  0  0  0  0  0  0  0  0  0  0
   56.5604    6.0210    7.0339 C   0  0  0  0  0  0  0  0  0  0  0  0
   54.5902    5.3338   10.6929 N   0  0  0  0  0  0  0  0  0  0  0  0
   53.7589    9.7930   12.4384 C   0  0  0  0  0  0  0  0  0  0  0  0
   52.7618    6.8483   10.2023 C   0  0  0  0  0  0  0  0  0  0  0  0
   53.1538   10.8726   11.7669 C   0  0  0  0  0  0  0  0  0  0  0  0
   53.6332    8.4980   11.9171 C   0  0  0  0  0  0  0  0  0  0  0  0
   52.9076    8.2565   10.7395 C   0  0  0  0  0  0  0  0  0  0  0  0
   52.4247   10.6352   10.5984 C   0  0  0  0  0  0  0  0  0  0  0  0
   52.2957    9.3383   10.0967 C   0  0  0  0  0  0  0  0  0  0  0  0
   55.7414    4.7163   10.3792 C   0  0  0  0  0  0  0  0  0  0  0  0
   54.3970    8.4142    5.3403 O   0  0  0  0  0  0  0  0  0  0  0  0
   56.6462    7.1737    4.8716 O   0  0  0  0  0  0  0  0  0  0  0  0
   54.4415   10.1052   13.5896 O   0  0  0  0  0  0  0  0  0  0  0  0
   53.3225   12.1120   12.3340 O   0  0  0  0  0  0  0  0  0  0  0  0
   56.4184    4.9126    9.1912 C   0  0  0  0  0  0  0  0  0  0  0  0
   53.1344    9.0372    5.5192 C   0  0  0  0  0  0  0  0  0  0  0  0
   55.0919    9.0438   14.2743 C   0  0  0  0  0  0  0  0  0  0  0  0
   57.9169    6.5933    4.6102 C   0  0  0  0  0  0  0  0  0  0  0  0
   52.7898   13.2331   11.6425 C   0  0  0  0  0  0  0  0  0  0  0  0
   53.6370    8.2924    8.9752 C   0  0  2  0  0  0  0  0  0  0  0  0
   55.0490    8.3885    8.4954 C   0  0  0  0  0  0  0  0  0  0  0  0
   53.6694    7.7951   10.4283 C   0  0  2  0  0  0  0  0  0  0  0  0
   55.1630    7.9213    7.2094 C   0  0  0  0  0  0  0  0  0  0  0  0
   53.1154    7.3067    7.9001 C   0  0  1  0  0  0  0  0  0  0  0  0
   53.9926    7.4126    6.7174 O   0  0  0  0  0  0  0  0  0  0  0  0
   54.4873    8.8538   11.2358 C   0  0  1  0  0  0  0  0  0  0  0  0
   56.1518    8.7574    9.2493 C   0  0  0  0  0  0  0  0  0  0  0  0
   54.1697    6.3716   10.5260 C   0  0  0  0  0  0  0  0  0  0  0  0
   55.9678    9.0001   10.7251 C   0  0  0  0  0  0  0  0  0  0  0  0
   53.8137   10.1826   11.2307 N   0  0  0  0  0  0  0  0  0  0  0  0
   52.9377    9.6630    8.9106 C   0  0  0  0  0  0  0  0  0  0  0  0
   53.8672    5.4760    9.5706 C   0  0  0  0  0  0  0  0  0  0  0  0
   53.0079    5.8356    8.3879 C   0  0  2  0  0  0  0  0  0  0  0  0
   56.3781    7.9254    6.5639 C   0  0  0  0  0  0  0  0  0  0  0  0
   53.5502   10.6873    9.8744 C   0  0  0  0  0  0  0  0  0  0  0  0
   57.3961    8.7648    8.6071 C   0  0  0  0  0  0  0  0  0  0  0  0
   57.5030    8.3626    7.2607 C   0  0  0  0  0  0  0  0  0  0  0  0
   56.5008    7.4814    5.2859 O   0  0  0  0  0  0  0  0  0  0  0  0
   53.2508    4.9209    7.3273 O   0  0  0  0  0  0  0  0  0  0  0  0
   52.6086   10.2100   12.0617 C   0  0  0  0  0  0  0  0  0  0  0  0
   54.5787    8.5368    8.2383 C   0  0  2  0  0  0  0  0  0  0  0  0
   54.2554    8.5360    9.7023 C   0  0  0  0  0  0  0  0  0  0  0  0
   55.4666    7.3262    7.9293 C   0  0  2  0  0  0  0  0  0  0  0  0
   54.1780    9.8277   10.1842 C   0  0  0  0  0  0  0  0  0  0  0  0
   55.2112    9.9430    8.1959 C   0  0  1  0  0  0  0  0  0  0  0  0
   54.5614   10.7535    9.2399 O   0  0  0  0  0  0  0  0  0  0  0  0
   54.6607    6.0693    8.4198 C   0  0  2  0  0  0  0  0  0  0  0  0
   53.3033    5.9870    7.8134 N   0  0  0  0  0  0  0  0  0  0  0  0
   54.1184    7.4314   10.5223 C   0  0  0  0  0  0  0  0  0  0  0  0
   56.8571    7.4630    8.4951 C   0  0  0  0  0  0  0  0  0  0  0  0
   54.4669    6.0740    9.9681 C   0  0  0  0  0  0  0  0  0  0  0  0
   53.2598    8.4492    7.4290 C   0  0  0  0  0  0  0  0  0  0  0  0
   57.4242    8.6624    8.6961 C   0  0  0  0  0  0  0  0  0  0  0  0
   56.7624    9.9718    8.3736 C   0  0  2  0  0  0  0  0  0  0  0  0
   53.8181   10.0898   11.4951 C   0  0  0  0  0  0  0  0  0  0  0  0
   53.0019    7.0483    6.8549 C   0  0  0  0  0  0  0  0  0  0  0  0
   53.7835    7.6653   11.8551 C   0  0  0  0  0  0  0  0  0  0  0  0
   53.6121    8.9828   12.3309 C   0  0  0  0  0  0  0  0  0  0  0  0
   53.0315    4.6637    7.2597 C   0  0  0  0  0  0  0  0  0  0  0  0
   57.1838   10.9219    9.3550 O   0  0  0  0  0  0  0  0  0  0  0  0
   53.7336   11.4015   11.8615 O   0  0  0  0  0  0  0  0  0  0  0  0
   53.0722   11.6692   13.0909 C   0  0  0  0  0  0  0  0  0  0  0  0
   53.2513    7.8786    7.7432 H   0  0  0  0  0  0  0  0  0  0  0  0
   57.4864    5.4844    6.8473 H   0  0  0  0  0  0  0  0  0  0  0  0
   52.0489    6.8161    9.3733 H   0  0  0  0  0  0  0  0  0  0  0  0
   52.2990    6.2375   10.9899 H   0  0  0  0  0  0  0  0  0  0  0  0
   54.0939    7.6493   12.4139 H   0  0  0  0  0  0  0  0  0  0  0  0
   51.9401   11.4386   10.0527 H   0  0  0  0  0  0  0  0  0  0  0  0
   51.7100    9.1827    9.1880 H   0  0  0  0  0  0  0  0  0  0  0  0
   56.1235    4.0327   11.1325 H   0  0  0  0  0  0  0  0  0  0  0  0
   57.3435    4.3745    9.0115 H   0  0  0  0  0  0  0  0  0  0  0  0
   53.1553    9.7274    6.3683 H   0  0  0  0  0  0  0  0  0  0  0  0
   52.3360    8.2949    5.6286 H   0  0  0  0  0  0  0  0  0  0  0  0
   52.9196    9.6230    4.6197 H   0  0  0  0  0  0  0  0  0  0  0  0
   55.5816    9.4684   15.1558 H   0  0  0  0  0  0  0  0  0  0  0  0
   55.8693    8.5906   13.6488 H   0  0  0  0  0  0  0  0  0  0  0  0
   54.3726    8.2955   14.6218 H   0  0  0  0  0  0  0  0  0  0  0  0
   58.6459    6.8686    5.3769 H   0  0  0  0  0  0  0  0  0  0  0  0
   57.8331    5.5087    4.5084 H   0  0  0  0  0  0  0  0  0  0  0  0
   58.2758    6.9911    3.6567 H   0  0  0  0  0  0  0  0  0  0  0  0
   51.6983   13.1794   11.5806 H   0  0  0  0  0  0  0  0  0  0  0  0
   53.0427   14.1314   12.2144 H   0  0  0  0  0  0  0  0  0  0  0  0
   53.2380   13.3363   10.6482 H   0  0  0  0  0  0  0  0  0  0  0  0
   52.6467    7.7623   10.8291 H   0  0  0  0  0  0  0  0  0  0  0  0
   52.1191    7.6077    7.5479 H   0  0  0  0  0  0  0  0  0  0  0  0
   54.5646    8.5318   12.2832 H   0  0  0  0  0  0  0  0  0  0  0  0
   54.7409    6.0667   11.3984 H   0  0  0  0  0  0  0  0  0  0  0  0
   56.3688    9.9852   10.9970 H   0  0  0  0  0  0  0  0  0  0  0  0
   56.5757    8.2536   11.2532 H   0  0  0  0  0  0  0  0  0  0  0  0
   51.8745    9.5307    9.1576 H   0  0  0  0  0  0  0  0  0  0  0  0
   52.9729   10.0727    7.8921 H   0  0  0  0  0  0  0  0  0  0  0  0
   54.1844    4.4431    9.6759 H   0  0  0  0  0  0  0  0  0  0  0  0
   51.9707    5.6667    8.7077 H   0  0  0  0  0  0  0  0  0  0  0  0
   52.9063   11.5746    9.9166 H   0  0  0  0  0  0  0  0  0  0  0  0
   54.4920   11.0618    9.4547 H   0  0  0  0  0  0  0  0  0  0  0  0
   58.2931    9.0515    9.1522 H   0  0  0  0  0  0  0  0  0  0  0  0
   58.4761    8.3588    6.7696 H   0  0  0  0  0  0  0  0  0  0  0  0
   55.5851    7.3498    4.9635 H   0  0  0  0  0  0  0  0  0  0  0  0
   54.2174    4.9168    7.1822 H   0  0  0  0  0  0  0  0  0  0  0  0
   51.7935    9.6054   11.6546 H   0  0  0  0  0  0  0  0  0  0  0  0
   52.8264    9.8595   13.0762 H   0  0  0  0  0  0  0  0  0  0  0  0
   52.2444   11.2380   12.1628 H   0  0  0  0  0  0  0  0  0  0  0  0
   55.6131    7.2377    6.8427 H   0  0  0  0  0  0  0  0  0  0  0  0
   54.9851   10.4414    7.2449 H   0  0  0  0  0  0  0  0  0  0  0  0
   55.2434    5.1762    8.1564 H   0  0  0  0  0  0  0  0  0  0  0  0
   57.4216    6.5593    8.7111 H   0  0  0  0  0  0  0  0  0  0  0  0
   55.4085    5.7550   10.4361 H   0  0  0  0  0  0  0  0  0  0  0  0
   53.7023    5.3436   10.2644 H   0  0  0  0  0  0  0  0  0  0  0  0
   53.2944    9.1433    6.5773 H   0  0  0  0  0  0  0  0  0  0  0  0
   52.3971    8.7531    8.0390 H   0  0  0  0  0  0  0  0  0  0  0  0
   58.4404    8.7151    9.0774 H   0  0  0  0  0  0  0  0  0  0  0  0
   57.1975   10.3075    7.4212 H   0  0  0  0  0  0  0  0  0  0  0  0
   51.9469    6.9961    6.5613 H   0  0  0  0  0  0  0  0  0  0  0  0
   53.5823    6.9140    5.9319 H   0  0  0  0  0  0  0  0  0  0  0  0
   53.6739    6.8287   12.5428 H   0  0  0  0  0  0  0  0  0  0  0  0
   53.3582    9.1080   13.3799 H   0  0  0  0  0  0  0  0  0  0  0  0
   53.7253    4.4028    6.4527 H   0  0  0  0  0  0  0  0  0  0  0  0
   53.1019    3.9017    8.0403 H   0  0  0  0  0  0  0  0  0  0  0  0
   52.0125    4.6115    6.8625 H   0  0  0  0  0  0  0  0  0  0  0  0
   56.3711   11.2251    9.8107 H   0  0  0  0  0  0  0  0  0  0  0  0
   52.0749   11.2139   13.1164 H   0  0  0  0  0  0  0  0  0  0  0  0
   52.9433   12.7546   13.1735 H   0  0  0  0  0  0  0  0  0  0  0  0
   53.6798   11.3401   13.9414 H   0  0  0  0  0  0  0  0  0  0  0  0
  2  1  1  0
  3  1  2  0
  4  1  1  0
  5  3  1  0
  6  7  1  0
  7  4  2  0
  8  2  2  0
  9 12  2  0
 10  2  1  0
 11 14  2  0
 12 13  1  0
 13 10  1  0
 14 15  1  0
 15 13  2  0
 16 21  2  0
 17  5  1  0
 18  6  1  0
 19  9  1  0
 20 11  1  0
 21  4  1  0
 22 17  1  0
 23 19  1  0
 24 18  1  0
 25 20  1  0
 16  8  1  0
  6  5  2  0
 11  9  1  0
 27 26  1  0
 28 26  1  0
 29 27  2  0
 30 26  1  0
 30 31  1  0
 32 28  1  0
 33 27  1  0
 28 34  1  0
 32 35  1  0
 36 41  1  0
 26 37  1  1
 38 39  1  0
 39 30  1  0
 40 29  1  0
 41 37  1  0
 42 33  2  0
 43 42  1  0
 44 40  1  0
 39 45  1  0
 46 36  1  0
 29 31  1  0
 32 36  1  0
 38 34  2  0
 35 33  1  0
 43 40  2  0
 48 47  1  0
 49 47  1  0
 50 48  2  0
 51 47  1  0
 52 51  1  0
 53 49  1  0
 54 62  1  0
 55 48  1  0
 49 56  1  0
 53 57  1  0
 47 58  1  1
 59 60  1  0
 60 51  1  0
 61 50  1  0
 62 58  1  0
 63 55  2  0
 64 63  1  0
 65 54  1  0
 60 66  1  0
 67 61  1  0
 68 67  1  0
 52 50  1  0
 53 54  1  0
 59 56  2  0
 57 55  1  0
 64 61  2  0
  3 69  1  0
  7 70  1  0
 10 71  1  0
 10 72  1  0
 12 73  1  0
 14 74  1  0
 15 75  1  0
 16 76  1  0
 21 77  1  0
 22 78  1  0
 22 79  1  0
 22 80  1  0
 23 81  1  0
 23 82  1  0
 23 83  1  0
 24 84  1  0
 24 85  1  0
 24 86  1  0
 25 87  1  0
 25 88  1  0
 25 89  1  0
 28 90  1  1
 30 91  1  1
 32 92  1  6
 34 93  1  0
 35 94  1  0
 35 95  1  0
 37 96  1  0
 37 97  1  0
 38 98  1  0
 39 99  1  1
 41100  1  0
 41101  1  0
 42102  1  0
 43103  1  0
 44104  1  0
 45105  1  0
 46106  1  0
 46107  1  0
 46108  1  0
 49109  1  1
 51110  1  1
 53111  1  6
 56112  1  0
 57113  1  0
 57114  1  0
 58115  1  0
 58116  1  0
 59117  1  0
 60118  1  1
 62119  1  0
 62120  1  0
 63121  1  0
 64122  1  0
 65123  1  0
 65124  1  0
 65125  1  0
 66126  1  0
 68127  1  0
 68128  1  0
 68129  1  0
M  END
> <Uni-Dock RESULT> 
ENERGY=   -5.133  LOWER_BOUND=    8.534  UPPER_BOUND=   11.446
INTER + INTRA:          -5.133
INTER:                  -5.133
INTRA:                   0.000
UNBOUND:                 0.000

$$$$

     RDKit          3D

129139  0  0  0  0  0  0  0  0999 V2000
   49.2274    6.7908   19.0535 C   0  0  0  0  0  0  0  0  0  0  0  0
   49.1935    5.9541   17.9073 C   0  0  0  0  0  0  0  0  0  0  0  0
   50.3184    7.6068   19.4370 C   0  0  0  0  0  0  0  0  0  0  0  0
   48.0786    6.8026   19.8742 C   0  0  0  0  0  0  0  0  0  0  0  0
   50.2795    8.4061   20.5874 C   0  0  0  0  0  0  0  0  0  0  0  0
   49.1264    8.4126   21.3849 C   0  0  0  0  0  0  0  0  0  0  0  0
   48.0389    7.6076   21.0260 C   0  0  0  0  0  0  0  0  0  0  0  0
   48.1157    5.1832   17.5824 N   0  0  0  0  0  0  0  0  0  0  0  0
   49.5228    8.2056   14.0457 C   0  0  0  0  0  0  0  0  0  0  0  0
   50.3587    5.8456   16.9436 C   0  0  0  0  0  0  0  0  0  0  0  0
   50.6402    9.0622   14.0503 C   0  0  0  0  0  0  0  0  0  0  0  0
   49.4387    7.1754   14.9926 C   0  0  0  0  0  0  0  0  0  0  0  0
   50.4537    6.9777   15.9423 C   0  0  0  0  0  0  0  0  0  0  0  0
   51.6560    8.8639   14.9896 C   0  0  0  0  0  0  0  0  0  0  0  0
   51.5666    7.8255   15.9191 C   0  0  0  0  0  0  0  0  0  0  0  0
   47.0488    5.2252   18.3978 C   0  0  0  0  0  0  0  0  0  0  0  0
   51.3100    9.2123   21.0087 O   0  0  0  0  0  0  0  0  0  0  0  0
   49.1589    9.2258   22.4884 O   0  0  0  0  0  0  0  0  0  0  0  0
   48.5770    8.4533   13.0798 O   0  0  0  0  0  0  0  0  0  0  0  0
   50.6520   10.0501   13.0963 O   0  0  0  0  0  0  0  0  0  0  0  0
   46.9832    6.0050   19.5361 C   0  0  0  0  0  0  0  0  0  0  0  0
   52.5280    9.1643   20.2816 C   0  0  0  0  0  0  0  0  0  0  0  0
   47.4206    7.6280   13.0678 C   0  0  0  0  0  0  0  0  0  0  0  0
   47.9791    9.3365   23.2731 C   0  0  0  0  0  0  0  0  0  0  0  0
   51.7270   10.9788   13.1202 C   0  0  0  0  0  0  0  0  0  0  0  0
   50.5178    7.7977   17.6656 C   0  0  2  0  0  0  0  0  0  0  0  0
   49.5073    8.6117   18.4068 C   0  0  0  0  0  0  0  0  0  0  0  0
   49.7719    6.9880   16.5944 C   0  0  2  0  0  0  0  0  0  0  0  0
   49.7660    8.6058   19.7551 C   0  0  0  0  0  0  0  0  0  0  0  0
   51.0880    7.0163   18.8756 C   0  0  1  0  0  0  0  0  0  0  0  0
   50.8187    7.8020   20.0962 O   0  0  0  0  0  0  0  0  0  0  0  0
   49.0708    8.0309   15.6656 C   0  0  1  0  0  0  0  0  0  0  0  0
   48.3685    9.1950   17.8742 C   0  0  0  0  0  0  0  0  0  0  0  0
   48.8636    5.9454   17.2064 C   0  0  0  0  0  0  0  0  0  0  0  0
   48.0280    8.9259   16.4312 C   0  0  0  0  0  0  0  0  0  0  0  0
   50.0644    8.8928   14.9663 N   0  0  0  0  0  0  0  0  0  0  0  0
   51.5699    8.7009   16.9954 C   0  0  0  0  0  0  0  0  0  0  0  0
   49.2244    5.3027   18.3302 C   0  0  0  0  0  0  0  0  0  0  0  0
   50.5414    5.5683   19.0094 C   0  0  2  0  0  0  0  0  0  0  0  0
   48.9629    9.3016   20.6292 C   0  0  0  0  0  0  0  0  0  0  0  0
   50.9759    9.5843   15.8909 C   0  0  0  0  0  0  0  0  0  0  0  0
   47.5398    9.9051   18.7515 C   0  0  0  0  0  0  0  0  0  0  0  0
   47.8481    9.9687   20.1252 C   0  0  0  0  0  0  0  0  0  0  0  0
   49.2181    9.3172   21.9635 O   0  0  0  0  0  0  0  0  0  0  0  0
   50.4635    5.1697   20.3717 O   0  0  0  0  0  0  0  0  0  0  0  0
   50.7963    8.1781   13.9187 C   0  0  0  0  0  0  0  0  0  0  0  0
   50.0613    8.6093   18.4545 C   0  0  2  0  0  0  0  0  0  0  0  0
   49.7720    8.0739   17.0844 C   0  0  0  0  0  0  0  0  0  0  0  0
   49.0398    8.0259   19.4372 C   0  0  2  0  0  0  0  0  0  0  0  0
   50.0469    9.0254   16.1221 C   0  0  0  0  0  0  0  0  0  0  0  0
   49.9586   10.1040   18.0876 C   0  0  1  0  0  0  0  0  0  0  0  0
   50.3646   10.2439   16.6788 O   0  0  0  0  0  0  0  0  0  0  0  0
   49.1645    6.4648   19.3059 C   0  0  2  0  0  0  0  0  0  0  0  0
   50.5548    5.9806   19.5291 N   0  0  0  0  0  0  0  0  0  0  0  0
   49.2338    6.8395   16.7713 C   0  0  0  0  0  0  0  0  0  0  0  0
   47.6534    8.5823   19.2362 C   0  0  0  0  0  0  0  0  0  0  0  0
   48.7316    5.9663   17.8921 C   0  0  0  0  0  0  0  0  0  0  0  0
   51.4955    8.1920   18.8682 C   0  0  0  0  0  0  0  0  0  0  0  0
   47.4494    9.8046   18.7214 C   0  0  0  0  0  0  0  0  0  0  0  0
   48.5506   10.7408   18.3121 C   0  0  2  0  0  0  0  0  0  0  0  0
   49.9293    8.7428   14.7719 C   0  0  0  0  0  0  0  0  0  0  0  0
   51.5145    7.0286   19.8706 C   0  0  0  0  0  0  0  0  0  0  0  0
   49.0774    6.5374   15.4193 C   0  0  0  0  0  0  0  0  0  0  0  0
   49.4442    7.4727   14.4284 C   0  0  0  0  0  0  0  0  0  0  0  0
   50.6016    4.8727   20.4789 C   0  0  0  0  0  0  0  0  0  0  0  0
   48.0930   11.4742   17.1736 O   0  0  0  0  0  0  0  0  0  0  0  0
   50.2614    9.7398   13.9015 O   0  0  0  0  0  0  0  0  0  0  0  0
   50.4393    9.3560   12.5445 C   0  0  0  0  0  0  0  0  0  0  0  0
   51.2061    7.6105   18.8186 H   0  0  0  0  0  0  0  0  0  0  0  0
   47.1429    7.5890   21.6401 H   0  0  0  0  0  0  0  0  0  0  0  0
   51.2909    5.7393   17.5058 H   0  0  0  0  0  0  0  0  0  0  0  0
   50.2672    4.9077   16.3783 H   0  0  0  0  0  0  0  0  0  0  0  0
   48.5854    6.5041   15.0125 H   0  0  0  0  0  0  0  0  0  0  0  0
   52.5353    9.4993   15.0249 H   0  0  0  0  0  0  0  0  0  0  0  0
   52.3816    7.6885   16.6332 H   0  0  0  0  0  0  0  0  0  0  0  0
   46.2144    4.5933   18.1059 H   0  0  0  0  0  0  0  0  0  0  0  0
   46.0849    5.9829   20.1444 H   0  0  0  0  0  0  0  0  0  0  0  0
   52.3904    9.5387   19.2625 H   0  0  0  0  0  0  0  0  0  0  0  0
   52.9518    8.1540   20.2812 H   0  0  0  0  0  0  0  0  0  0  0  0
   53.2440    9.8226   20.7838 H   0  0  0  0  0  0  0  0  0  0  0  0
   46.7818    7.9638   12.2454 H   0  0  0  0  0  0  0  0  0  0  0  0
   46.8501    7.7373   13.9970 H   0  0  0  0  0  0  0  0  0  0  0  0
   47.6813    6.5816   12.8802 H   0  0  0  0  0  0  0  0  0  0  0  0
   47.1315    9.6764   22.6723 H   0  0  0  0  0  0  0  0  0  0  0  0
   47.7597    8.3920   23.7769 H   0  0  0  0  0  0  0  0  0  0  0  0
   48.1602   10.0912   24.0436 H   0  0  0  0  0  0  0  0  0  0  0  0
   52.6830   10.4847   12.9199 H   0  0  0  0  0  0  0  0  0  0  0  0
   51.5595   11.7069   12.3202 H   0  0  0  0  0  0  0  0  0  0  0  0
   51.7563   11.5284   14.0675 H   0  0  0  0  0  0  0  0  0  0  0  0
   50.4943    6.4156   15.9959 H   0  0  0  0  0  0  0  0  0  0  0  0
   52.1828    6.9478   18.8126 H   0  0  0  0  0  0  0  0  0  0  0  0
   48.4973    7.5017   14.8925 H   0  0  0  0  0  0  0  0  0  0  0  0
   47.9344    5.6886   16.7054 H   0  0  0  0  0  0  0  0  0  0  0  0
   47.8752    9.8732   15.8980 H   0  0  0  0  0  0  0  0  0  0  0  0
   47.0659    8.3969   16.4198 H   0  0  0  0  0  0  0  0  0  0  0  0
   52.3570    8.0671   16.5619 H   0  0  0  0  0  0  0  0  0  0  0  0
   52.0612    9.3459   17.7364 H   0  0  0  0  0  0  0  0  0  0  0  0
   48.5917    4.5175   18.7324 H   0  0  0  0  0  0  0  0  0  0  0  0
   51.2663    4.8944   18.5333 H   0  0  0  0  0  0  0  0  0  0  0  0
   51.7903   10.0648   15.3346 H   0  0  0  0  0  0  0  0  0  0  0  0
   50.4356   10.4223   16.3484 H   0  0  0  0  0  0  0  0  0  0  0  0
   46.6360   10.3865   18.3837 H   0  0  0  0  0  0  0  0  0  0  0  0
   47.1927   10.5128   20.8052 H   0  0  0  0  0  0  0  0  0  0  0  0
   50.0989    8.9013   22.0683 H   0  0  0  0  0  0  0  0  0  0  0  0
   49.6789    5.6170   20.7457 H   0  0  0  0  0  0  0  0  0  0  0  0
   51.4780    7.4198   14.3135 H   0  0  0  0  0  0  0  0  0  0  0  0
   50.1049    7.6930   13.2216 H   0  0  0  0  0  0  0  0  0  0  0  0
   51.3879    8.8832   13.3249 H   0  0  0  0  0  0  0  0  0  0  0  0
   49.3086    8.3067   20.4662 H   0  0  0  0  0  0  0  0  0  0  0  0
   50.6778   10.6960   18.6673 H   0  0  0  0  0  0  0  0  0  0  0  0
   48.4875    6.0133   20.0437 H   0  0  0  0  0  0  0  0  0  0  0  0
   46.8023    7.9838   19.5517 H   0  0  0  0  0  0  0  0  0  0  0  0
   47.6337    5.9647   17.8465 H   0  0  0  0  0  0  0  0  0  0  0  0
   49.0570    4.9300   17.7309 H   0  0  0  0  0  0  0  0  0  0  0  0
   52.0094    9.0369   19.3481 H   0  0  0  0  0  0  0  0  0  0  0  0
   52.1005    7.9217   17.9909 H   0  0  0  0  0  0  0  0  0  0  0  0
   46.4342   10.1791   18.6218 H   0  0  0  0  0  0  0  0  0  0  0  0
   48.6460   11.4742   19.1259 H   0  0  0  0  0  0  0  0  0  0  0  0
   52.5294    6.6141   19.8829 H   0  0  0  0  0  0  0  0  0  0  0  0
   51.3285    7.4100   20.8838 H   0  0  0  0  0  0  0  0  0  0  0  0
   48.6489    5.5819   15.1221 H   0  0  0  0  0  0  0  0  0  0  0  0
   49.2947    7.1882   13.3904 H   0  0  0  0  0  0  0  0  0  0  0  0
   50.2333    5.1617   21.4696 H   0  0  0  0  0  0  0  0  0  0  0  0
   50.0033    4.0331   20.1155 H   0  0  0  0  0  0  0  0  0  0  0  0
   51.6256    4.5018   20.5916 H   0  0  0  0  0  0  0  0  0  0  0  0
   48.7145   11.2664   16.4451 H   0  0  0  0  0  0  0  0  0  0  0  0
   51.1565    8.5316   12.4523 H   0  0  0  0  0  0  0  0  0  0  0  0
   50.8512   10.2158   12.0035 H   0  0  0  0  0  0  0  0  0  0  0  0
   49.4796    9.0998   12.0817 H   0  0  0  0  0  0  0  0  0  0  0  0
  2  1  1  0
  3  1  2  0
  4  1  1  0
  5  3  1  0
  6  7  1  0
  7  4  2  0
  8  2  2  0
  9 12  2  0
 10  2  1  0
 11 14  2  0
 12 13  1  0
 13 10  1  0
 14 15  1  0
 15 13  2  0
 16 21  2  0
 17  5  1  0
 18  6  1  0
 19  9  1  0
 20 11  1  0
 21  4  1  0
 22 17  1  0
 23 19  1  0
 24 18  1  0
 25 20  1  0
 16  8  1  0
  6  5  2  0
 11  9  1  0
 27 26  1  0
 28 26  1  0
 29 27  2  0
 30 26  1  0
 30 31  1  0
 32 28  1  0
 33 27  1  0
 28 34  1  0
 32 35  1  0
 36 41  1  0
 26 37  1  1
 38 39  1  0
 39 30  1  0
 40 29  1  0
 41 37  1  0
 42 33  2  0
 43 42  1  0
 44 40  1  0
 39 45  1  0
 46 36  1  0
 29 31  1  0
 32 36  1  0
 38 34  2  0
 35 33  1  0
 43 40  2  0
 48 47  1  0
 49 47  1  0
 50 48  2  0
 51 47  1  0
 52 51  1  0
 53 49  1  0
 54 62  1  0
 55 48  1  0
 49 56  1  0
 53 57  1  0
 47 58  1  1
 59 60  1  0
 60 51  1  0
 61 50  1  0
 62 58  1  0
 63 55  2  0
 64 63  1  0
 65 54  1  0
 60 66  1  0
 67 61  1  0
 68 67  1  0
 52 50  1  0
 53 54  1  0
 59 56  2  0
 57 55  1  0
 64 61  2  0
  3 69  1  0
  7 70  1  0
 10 71  1  0
 10 72  1  0
 12 73  1  0
 14 74  1  0
 15 75  1  0
 16 76  1  0
 21 77  1  0
 22 78  1  0
 22 79  1  0
 22 80  1  0
 23 81  1  0
 23 82  1  0
 23 83  1  0
 24 84  1  0
 24 85  1  0
 24 86  1  0
 25 87  1  0
 25 88  1  0
 25 89  1  0
 28 90  1  1
 30 91  1  1
 32 92  1  6
 34 93  1  0
 35 94  1  0
 35 95  1  0
 37 96  1  0
 37 97  1  0
 38 98  1  0
 39 99  1  1
 41100  1  0
 41101  1  0
 42102  1  0
 43103  1  0
 44104  1  0
 45105  1  0
 46106  1  0
 46107  1  0
 46108  1  0
 49109  1  1
 51110  1  1
 53111  1  6
 56112  1  0
 57113  1  0
 57114  1  0
 58115  1  0
 58116  1  0
 59117  1  0
 60118  1  1
 62119  1  0
 62120  1  0
 63121  1  0
 64122  1  0
 65123  1  0
 65124  1  0
 65125  1  0
 66126  1  0
 68127  1  0
 68128  1  0
 68129  1  0
M  END
> <Uni-Dock RESULT> 
ENERGY=   -5.111  LOWER_BOUND=    1.934  UPPER_BOUND=    5.015
INTER + INTRA:          -5.111
INTER:                  -5.111
INTRA:                   0.000
UNBOUND:                 0.000

$$$$

     RDKit          3D

129139  0  0  0  0  0  0  0  0999 V2000
   49.0584    9.8234   22.1246 C   0  0  0  0  0  0  0  0  0  0  0  0
   48.4510   11.0840   22.3635 C   0  0  0  0  0  0  0  0  0  0  0  0
   48.6712    8.9081   21.1168 C   0  0  0  0  0  0  0  0  0  0  0  0
   50.1320    9.4582   22.9656 C   0  0  0  0  0  0  0  0  0  0  0  0
   49.3183    7.6773   20.9431 C   0  0  0  0  0  0  0  0  0  0  0  0
   50.3891    7.3360   21.7813 C   0  0  0  0  0  0  0  0  0  0  0  0
   50.7832    8.2250   22.7883 C   0  0  0  0  0  0  0  0  0  0  0  0
   48.8610   11.9303   23.3518 N   0  0  0  0  0  0  0  0  0  0  0  0
   48.8354   13.9293   18.9217 C   0  0  0  0  0  0  0  0  0  0  0  0
   47.2888   11.5977   21.5365 C   0  0  0  0  0  0  0  0  0  0  0  0
   48.3914   13.3399   17.7226 C   0  0  0  0  0  0  0  0  0  0  0  0
   48.4804   13.3509   20.1482 C   0  0  0  0  0  0  0  0  0  0  0  0
   47.6828   12.1967   20.2027 C   0  0  0  0  0  0  0  0  0  0  0  0
   47.5913   12.1950   17.7732 C   0  0  0  0  0  0  0  0  0  0  0  0
   47.2335   11.6362   19.0019 C   0  0  0  0  0  0  0  0  0  0  0  0
   49.8833   11.5351   24.1287 C   0  0  0  0  0  0  0  0  0  0  0  0
   48.9811    6.7503   19.9857 O   0  0  0  0  0  0  0  0  0  0  0  0
   50.9782    6.1205   21.5454 O   0  0  0  0  0  0  0  0  0  0  0  0
   49.6012   15.0628   18.7890 O   0  0  0  0  0  0  0  0  0  0  0  0
   48.7814   13.9593   16.5605 O   0  0  0  0  0  0  0  0  0  0  0  0
   50.5398   10.3291   23.9783 C   0  0  0  0  0  0  0  0  0  0  0  0
   47.8450    7.0163   19.1778 C   0  0  0  0  0  0  0  0  0  0  0  0
   50.0933   15.6643   19.9783 C   0  0  0  0  0  0  0  0  0  0  0  0
   52.1263    5.7740   22.3080 C   0  0  0  0  0  0  0  0  0  0  0  0
   48.4149   13.3486   15.3311 C   0  0  0  0  0  0  0  0  0  0  0  0
   48.3438   10.4053   20.1865 C   0  0  2  0  0  0  0  0  0  0  0  0
   49.7341    9.8679   20.2933 C   0  0  0  0  0  0  0  0  0  0  0  0
   48.3469   11.8291   20.7631 C   0  0  2  0  0  0  0  0  0  0  0  0
   49.7233    8.5566   20.6999 C   0  0  0  0  0  0  0  0  0  0  0  0
   47.6290    9.3074   21.0131 C   0  0  1  0  0  0  0  0  0  0  0  0
   48.4683    8.0931   20.9844 O   0  0  0  0  0  0  0  0  0  0  0  0
   49.3559   12.6504   19.8975 C   0  0  1  0  0  0  0  0  0  0  0  0
   50.9090   10.5888   20.1504 C   0  0  0  0  0  0  0  0  0  0  0  0
   48.6104   11.8339   22.2520 C   0  0  0  0  0  0  0  0  0  0  0  0
   50.8210   12.0816   19.9642 C   0  0  0  0  0  0  0  0  0  0  0  0
   48.9095   12.7412   18.4791 N   0  0  0  0  0  0  0  0  0  0  0  0
   47.8767   10.4399   18.7194 C   0  0  0  0  0  0  0  0  0  0  0  0
   48.1308   10.8500   23.0319 C   0  0  0  0  0  0  0  0  0  0  0  0
   47.2997    9.7263   22.4724 C   0  0  2  0  0  0  0  0  0  0  0  0
   50.8984    7.8582   20.8562 C   0  0  0  0  0  0  0  0  0  0  0  0
   48.6833   11.4246   17.8633 C   0  0  0  0  0  0  0  0  0  0  0  0
   52.1136    9.8925   20.3083 C   0  0  0  0  0  0  0  0  0  0  0  0
   52.1043    8.5244   20.6464 C   0  0  0  0  0  0  0  0  0  0  0  0
   50.9003    6.5556   21.2419 O   0  0  0  0  0  0  0  0  0  0  0  0
   47.3508    8.6120   23.3535 O   0  0  0  0  0  0  0  0  0  0  0  0
   47.7561   13.6258   18.3038 C   0  0  0  0  0  0  0  0  0  0  0  0
   49.2855    9.6399   20.0567 C   0  0  2  0  0  0  0  0  0  0  0  0
   49.0197   11.1150   20.0872 C   0  0  0  0  0  0  0  0  0  0  0  0
   49.9512    9.2319   21.3757 C   0  0  2  0  0  0  0  0  0  0  0  0
   49.1725   11.6631   18.8290 C   0  0  0  0  0  0  0  0  0  0  0  0
   50.1378    9.6385   18.7711 C   0  0  1  0  0  0  0  0  0  0  0  0
   49.6679   10.7494   17.9260 O   0  0  0  0  0  0  0  0  0  0  0  0
   48.9686    9.6954   22.5112 C   0  0  2  0  0  0  0  0  0  0  0  0
   47.5949    9.1473   22.3388 N   0  0  0  0  0  0  0  0  0  0  0  0
   48.7334   11.8848   21.1994 C   0  0  0  0  0  0  0  0  0  0  0  0
   51.3649    9.7407   21.4975 C   0  0  0  0  0  0  0  0  0  0  0  0
   48.8344   11.2492   22.5620 C   0  0  0  0  0  0  0  0  0  0  0  0
   47.9416    8.8872   19.8844 C   0  0  0  0  0  0  0  0  0  0  0  0
   52.1278    9.9750   20.4187 C   0  0  0  0  0  0  0  0  0  0  0  0
   51.6782    9.7476   19.0035 C   0  0  2  0  0  0  0  0  0  0  0  0
   48.9082   13.0002   18.5861 C   0  0  0  0  0  0  0  0  0  0  0  0
   47.4370    8.2568   21.1907 C   0  0  0  0  0  0  0  0  0  0  0  0
   48.4899   13.2413   20.9893 C   0  0  0  0  0  0  0  0  0  0  0  0
   48.5540   13.7887   19.6903 C   0  0  0  0  0  0  0  0  0  0  0  0
   47.0901    8.5417   23.5676 C   0  0  0  0  0  0  0  0  0  0  0  0
   52.2849   10.7548   18.1905 O   0  0  0  0  0  0  0  0  0  0  0  0
   49.0530   13.4344   17.3006 O   0  0  0  0  0  0  0  0  0  0  0  0
   48.4895   14.7039   16.9988 C   0  0  0  0  0  0  0  0  0  0  0  0
   47.8510    9.1729   20.4628 H   0  0  0  0  0  0  0  0  0  0  0  0
   51.6013    7.9707   23.4562 H   0  0  0  0  0  0  0  0  0  0  0  0
   46.5508   10.8010   21.4066 H   0  0  0  0  0  0  0  0  0  0  0  0
   46.7612   12.3742   22.1076 H   0  0  0  0  0  0  0  0  0  0  0  0
   48.8135   13.7840   21.0867 H   0  0  0  0  0  0  0  0  0  0  0  0
   47.2255   11.7119   16.8727 H   0  0  0  0  0  0  0  0  0  0  0  0
   46.5977   10.7481   19.0096 H   0  0  0  0  0  0  0  0  0  0  0  0
   50.1753   12.2358   24.9063 H   0  0  0  0  0  0  0  0  0  0  0  0
   51.3570   10.0816   24.6479 H   0  0  0  0  0  0  0  0  0  0  0  0
   48.0095    7.8966   18.5487 H   0  0  0  0  0  0  0  0  0  0  0  0
   46.9403    7.1247   19.7862 H   0  0  0  0  0  0  0  0  0  0  0  0
   47.6966    6.1574   18.5155 H   0  0  0  0  0  0  0  0  0  0  0  0
   50.6776   16.5428   19.6886 H   0  0  0  0  0  0  0  0  0  0  0  0
   50.7627   14.9830   20.5155 H   0  0  0  0  0  0  0  0  0  0  0  0
   49.2742   16.0065   20.6187 H   0  0  0  0  0  0  0  0  0  0  0  0
   52.9179    6.5198   22.1976 H   0  0  0  0  0  0  0  0  0  0  0  0
   51.8623    5.6226   23.3574 H   0  0  0  0  0  0  0  0  0  0  0  0
   52.5107    4.8261   21.9207 H   0  0  0  0  0  0  0  0  0  0  0  0
   47.3278   13.3332   15.2041 H   0  0  0  0  0  0  0  0  0  0  0  0
   48.8321   13.9522   14.5190 H   0  0  0  0  0  0  0  0  0  0  0  0
   48.8376   12.3415   15.2463 H   0  0  0  0  0  0  0  0  0  0  0  0
   47.3478   12.2733   20.6525 H   0  0  0  0  0  0  0  0  0  0  0  0
   46.6835    9.0155   20.5357 H   0  0  0  0  0  0  0  0  0  0  0  0
   49.4174   13.6761   20.2860 H   0  0  0  0  0  0  0  0  0  0  0  0
   49.1552   12.6636   22.6937 H   0  0  0  0  0  0  0  0  0  0  0  0
   51.3875   12.3835   19.0737 H   0  0  0  0  0  0  0  0  0  0  0  0
   51.3171   12.5443   20.8275 H   0  0  0  0  0  0  0  0  0  0  0  0
   46.8158   10.7276   18.6917 H   0  0  0  0  0  0  0  0  0  0  0  0
   47.9416    9.4423   18.2644 H   0  0  0  0  0  0  0  0  0  0  0  0
   48.2781   10.8898   24.1068 H   0  0  0  0  0  0  0  0  0  0  0  0
   46.2612   10.0836   22.4890 H   0  0  0  0  0  0  0  0  0  0  0  0
   48.1954   11.5395   16.8873 H   0  0  0  0  0  0  0  0  0  0  0  0
   49.6578   10.9820   17.6231 H   0  0  0  0  0  0  0  0  0  0  0  0
   53.0646   10.4103   20.2014 H   0  0  0  0  0  0  0  0  0  0  0  0
   53.0452    7.9906   20.7799 H   0  0  0  0  0  0  0  0  0  0  0  0
   49.9643    6.2685   21.2054 H   0  0  0  0  0  0  0  0  0  0  0  0
   48.2979    8.4236   23.5057 H   0  0  0  0  0  0  0  0  0  0  0  0
   46.8387   13.2263   18.7449 H   0  0  0  0  0  0  0  0  0  0  0  0
   47.9501   14.6109   18.7412 H   0  0  0  0  0  0  0  0  0  0  0  0
   47.5691   13.7938   17.2377 H   0  0  0  0  0  0  0  0  0  0  0  0
   50.0418    8.1368   21.4257 H   0  0  0  0  0  0  0  0  0  0  0  0
   49.9621    8.7244   18.1902 H   0  0  0  0  0  0  0  0  0  0  0  0
   49.3872    9.3624   23.4706 H   0  0  0  0  0  0  0  0  0  0  0  0
   51.7812    9.8863   22.4912 H   0  0  0  0  0  0  0  0  0  0  0  0
   49.7273   11.6581   23.0547 H   0  0  0  0  0  0  0  0  0  0  0  0
   47.9717   11.5432   23.1746 H   0  0  0  0  0  0  0  0  0  0  0  0
   48.0585    8.0701   19.1584 H   0  0  0  0  0  0  0  0  0  0  0  0
   47.1630    9.5496   19.4797 H   0  0  0  0  0  0  0  0  0  0  0  0
   53.1520   10.3124   20.5525 H   0  0  0  0  0  0  0  0  0  0  0  0
   52.1276    8.7943   18.6898 H   0  0  0  0  0  0  0  0  0  0  0  0
   46.3777    8.0087   21.0552 H   0  0  0  0  0  0  0  0  0  0  0  0
   47.9536    7.3032   21.3652 H   0  0  0  0  0  0  0  0  0  0  0  0
   48.2697   13.8911   21.8345 H   0  0  0  0  0  0  0  0  0  0  0  0
   48.3623   14.8530   19.5846 H   0  0  0  0  0  0  0  0  0  0  0  0
   47.7020    7.6924   23.8916 H   0  0  0  0  0  0  0  0  0  0  0  0
   47.0630    9.2798   24.3735 H   0  0  0  0  0  0  0  0  0  0  0  0
   46.0626    8.1885   23.4320 H   0  0  0  0  0  0  0  0  0  0  0  0
   51.5499   11.2609   17.7860 H   0  0  0  0  0  0  0  0  0  0  0  0
   47.4327   14.7517   17.2875 H   0  0  0  0  0  0  0  0  0  0  0  0
   48.5433   14.8457   15.9132 H   0  0  0  0  0  0  0  0  0  0  0  0
   49.0655   15.5090   17.4689 H   0  0  0  0  0  0  0  0  0  0  0  0
  2  1  1  0
  3  1  2  0
  4  1  1  0
  5  3  1  0
  6  7  1  0
  7  4  2  0
  8  2  2  0
  9 12  2  0
 10  2  1  0
 11 14  2  0
 12 13  1  0
 13 10  1  0
 14 15  1  0
 15 13  2  0
 16 21  2  0
 17  5  1  0
 18  6  1  0
 19  9  1  0
 20 11  1  0
 21  4  1  0
 22 17  1  0
 23 19  1  0
 24 18  1  0
 25 20  1  0
 16  8  1  0
  6  5  2  0
 11  9  1  0
 27 26  1  0
 28 26  1  0
 29 27  2  0
 30 26  1  0
 30 31  1  0
 32 28  1  0
 33 27  1  0
 28 34  1  0
 32 35  1  0
 36 41  1  0
 26 37  1  1
 38 39  1  0
 39 30  1  0
 40 29  1  0
 41 37  1  0
 42 33  2  0
 43 42  1  0
 44 40  1  0
 39 45  1  0
 46 36  1  0
 29 31  1  0
 32 36  1  0
 38 34  2  0
 35 33  1  0
 43 40  2  0
 48 47  1  0
 49 47  1  0
 50 48  2  0
 51 47  1  0
 52 51  1  0
 53 49  1  0
 54 62  1  0
 55 48  1  0
 49 56  1  0
 53 57  1  0
 47 58  1  1
 59 60  1  0
 60 51  1  0
 61 50  1  0
 62 58  1  0
 63 55  2  0
 64 63  1  0
 65 54  1  0
 60 66  1  0
 67 61  1  0
 68 67  1  0
 52 50  1  0
 53 54  1  0
 59 56  2  0
 57 55  1  0
 64 61  2  0
  3 69  1  0
  7 70  1  0
 10 71  1  0
 10 72  1  0
 12 73  1  0
 14 74  1  0
 15 75  1  0
 16 76  1  0
 21 77  1  0
 22 78  1  0
 22 79  1  0
 22 80  1  0
 23 81  1  0
 23 82  1  0
 23 83  1  0
 24 84  1  0
 24 85  1  0
 24 86  1  0
 25 87  1  0
 25 88  1  0
 25 89  1  0
 28 90  1  1
 30 91  1  1
 32 92  1  6
 34 93  1  0
 35 94  1  0
 35 95  1  0
 37 96  1  0
 37 97  1  0
 38 98  1  0
 39 99  1  1
 41100  1  0
 41101  1  0
 42102  1  0
 43103  1  0
 44104  1  0
 45105  1  0
 46106  1  0
 46107  1  0
 46108  1  0
 49109  1  1
 51110  1  1
 53111  1  6
 56112  1  0
 57113  1  0
 57114  1  0
 58115  1  0
 58116  1  0
 59117  1  0
 60118  1  1
 62119  1  0
 62120  1  0
 63121  1  0
 64122  1  0
 65123  1  0
 65124  1  0
 65125  1  0
 66126  1  0
 68127  1  0
 68128  1  0
 68129  1  0
M  END
> <Uni-Dock RESULT> 
ENERGY=   -4.934  LOWER_BOUND=    2.284  UPPER_BOUND=    4.000
INTER + INTRA:          -4.934
INTER:                  -4.934
INTRA:                   0.000
UNBOUND:                 0.000

$$$$

     RDKit          3D

129139  0  0  0  0  0  0  0  0999 V2000
   50.2933    7.9134   16.3474 C   0  0  0  0  0  0  0  0  0  0  0  0
   48.9357    7.7594   16.7326 C   0  0  0  0  0  0  0  0  0  0  0  0
   50.8551    9.0852   15.7865 C   0  0  0  0  0  0  0  0  0  0  0  0
   51.1450    6.8038   16.5387 C   0  0  0  0  0  0  0  0  0  0  0  0
   52.2075    9.1616   15.4271 C   0  0  0  0  0  0  0  0  0  0  0  0
   53.0404    8.0530   15.6337 C   0  0  0  0  0  0  0  0  0  0  0  0
   52.5024    6.8825   16.1815 C   0  0  0  0  0  0  0  0  0  0  0  0
   48.4422    6.6055   17.2677 N   0  0  0  0  0  0  0  0  0  0  0  0
   47.6879   10.5411   20.0181 C   0  0  0  0  0  0  0  0  0  0  0  0
   47.9149    8.8697   16.5800 C   0  0  0  0  0  0  0  0  0  0  0  0
   48.0067   11.8758   19.7028 C   0  0  0  0  0  0  0  0  0  0  0  0
   47.6712    9.5765   19.0012 C   0  0  0  0  0  0  0  0  0  0  0  0
   47.9601    9.9193   17.6706 C   0  0  0  0  0  0  0  0  0  0  0  0
   48.2877   12.2221   18.3782 C   0  0  0  0  0  0  0  0  0  0  0  0
   48.2546   11.2542   17.3721 C   0  0  0  0  0  0  0  0  0  0  0  0
   49.2913    5.5764   17.4250 C   0  0  0  0  0  0  0  0  0  0  0  0
   52.8033   10.2706   14.8751 O   0  0  0  0  0  0  0  0  0  0  0  0
   54.3526    8.2056   15.2663 O   0  0  0  0  0  0  0  0  0  0  0  0
   47.4051   10.2844   21.3383 O   0  0  0  0  0  0  0  0  0  0  0  0
   48.0069   12.7639   20.7504 O   0  0  0  0  0  0  0  0  0  0  0  0
   50.6283    5.6253   17.0814 C   0  0  0  0  0  0  0  0  0  0  0  0
   51.9760   11.3811   14.5644 C   0  0  0  0  0  0  0  0  0  0  0  0
   47.1116    8.9413   21.6967 C   0  0  0  0  0  0  0  0  0  0  0  0
   55.2535    7.1421   15.5442 C   0  0  0  0  0  0  0  0  0  0  0  0
   48.3980   14.1030   20.4812 C   0  0  0  0  0  0  0  0  0  0  0  0
   49.7016    9.9042   16.8877 C   0  0  2  0  0  0  0  0  0  0  0  0
   51.0081    9.3928   17.4024 C   0  0  0  0  0  0  0  0  0  0  0  0
   48.5828    9.2106   17.6795 C   0  0  2  0  0  0  0  0  0  0  0  0
   51.8834    9.1575   16.3711 C   0  0  0  0  0  0  0  0  0  0  0  0
   49.8822    9.4910   15.4057 C   0  0  1  0  0  0  0  0  0  0  0  0
   51.3287    9.3653   15.1383 O   0  0  0  0  0  0  0  0  0  0  0  0
   48.8063    9.5907   19.1787 C   0  0  1  0  0  0  0  0  0  0  0  0
   51.3002    9.0518   18.7135 C   0  0  0  0  0  0  0  0  0  0  0  0
   48.5189    7.7289   17.3850 C   0  0  0  0  0  0  0  0  0  0  0  0
   50.1921    9.0948   19.7338 C   0  0  0  0  0  0  0  0  0  0  0  0
   48.6669   11.0579   19.3957 N   0  0  0  0  0  0  0  0  0  0  0  0
   49.5967   11.4301   17.0681 C   0  0  0  0  0  0  0  0  0  0  0  0
   48.7827    7.2677   16.1505 C   0  0  0  0  0  0  0  0  0  0  0  0
   49.1250    8.1926   15.0130 C   0  0  2  0  0  0  0  0  0  0  0  0
   53.1534    8.6897   16.6185 C   0  0  0  0  0  0  0  0  0  0  0  0
   49.5644   11.8521   18.5426 C   0  0  0  0  0  0  0  0  0  0  0  0
   52.5883    8.5724   18.9812 C   0  0  0  0  0  0  0  0  0  0  0  0
   53.5166    8.4068   17.9338 C   0  0  0  0  0  0  0  0  0  0  0  0
   54.0343    8.4688   15.6081 O   0  0  0  0  0  0  0  0  0  0  0  0
   49.8239    7.4716   14.0069 O   0  0  0  0  0  0  0  0  0  0  0  0
   47.2799   11.5161   19.2958 C   0  0  0  0  0  0  0  0  0  0  0  0
   50.9088    9.7900   17.0261 C   0  0  2  0  0  0  0  0  0  0  0  0
   49.6593    9.6923   17.8488 C   0  0  0  0  0  0  0  0  0  0  0  0
   51.4408    8.3758   16.7684 C   0  0  2  0  0  0  0  0  0  0  0  0
   49.5669   10.7581   18.7220 C   0  0  0  0  0  0  0  0  0  0  0  0
   51.6884   10.7044   17.9933 C   0  0  1  0  0  0  0  0  0  0  0  0
   50.7045   11.5336   18.7100 O   0  0  0  0  0  0  0  0  0  0  0  0
   50.2636    7.5960   16.0785 C   0  0  2  0  0  0  0  0  0  0  0  0
   49.7633    8.2802   14.8543 N   0  0  0  0  0  0  0  0  0  0  0  0
   48.7329    8.6661   17.8339 C   0  0  0  0  0  0  0  0  0  0  0  0
   52.0045    7.7297   18.0081 C   0  0  0  0  0  0  0  0  0  0  0  0
   49.0425    7.4264   17.0351 C   0  0  0  0  0  0  0  0  0  0  0  0
   50.5762   10.4862   15.6819 C   0  0  0  0  0  0  0  0  0  0  0  0
   52.5206    8.4554   19.0119 C   0  0  0  0  0  0  0  0  0  0  0  0
   52.6085    9.9551   19.0085 C   0  0  2  0  0  0  0  0  0  0  0  0
   48.4618   10.9305   19.5378 C   0  0  0  0  0  0  0  0  0  0  0  0
   50.4838    9.5030   14.5057 C   0  0  0  0  0  0  0  0  0  0  0  0
   47.6225    8.7986   18.6663 C   0  0  0  0  0  0  0  0  0  0  0  0
   47.4775    9.9326   19.4935 C   0  0  0  0  0  0  0  0  0  0  0  0
   49.6651    7.3670   13.7195 C   0  0  0  0  0  0  0  0  0  0  0  0
   52.4187   10.4018   20.3531 O   0  0  0  0  0  0  0  0  0  0  0  0
   48.4508   12.0367   20.3366 O   0  0  0  0  0  0  0  0  0  0  0  0
   47.2026   12.3725   20.9280 C   0  0  0  0  0  0  0  0  0  0  0  0
   50.2166    9.9451   15.6342 H   0  0  0  0  0  0  0  0  0  0  0  0
   53.1297    6.0090   16.3351 H   0  0  0  0  0  0  0  0  0  0  0  0
   48.0149    9.3264   15.5911 H   0  0  0  0  0  0  0  0  0  0  0  0
   46.9078    8.4303   16.5820 H   0  0  0  0  0  0  0  0  0  0  0  0
   47.4325    8.5398   19.2192 H   0  0  0  0  0  0  0  0  0  0  0  0
   48.5345   13.2397   18.0925 H   0  0  0  0  0  0  0  0  0  0  0  0
   48.4674   11.5575   16.3446 H   0  0  0  0  0  0  0  0  0  0  0  0
   48.8572    4.6751   17.8496 H   0  0  0  0  0  0  0  0  0  0  0  0
   51.2499    4.7498   17.2385 H   0  0  0  0  0  0  0  0  0  0  0  0
   51.5510   11.8189   15.4730 H   0  0  0  0  0  0  0  0  0  0  0  0
   51.1920   11.1061   13.8502 H   0  0  0  0  0  0  0  0  0  0  0  0
   52.6026   12.1430   14.0899 H   0  0  0  0  0  0  0  0  0  0  0  0
   46.9161    8.9202   22.7730 H   0  0  0  0  0  0  0  0  0  0  0  0
   47.9684    8.2863   21.5021 H   0  0  0  0  0  0  0  0  0  0  0  0
   46.2112    8.5822   21.1882 H   0  0  0  0  0  0  0  0  0  0  0  0
   55.2646    6.8976   16.6096 H   0  0  0  0  0  0  0  0  0  0  0  0
   55.0177    6.2664   14.9349 H   0  0  0  0  0  0  0  0  0  0  0  0
   56.2588    7.4765   15.2727 H   0  0  0  0  0  0  0  0  0  0  0  0
   47.6982   14.5907   19.7952 H   0  0  0  0  0  0  0  0  0  0  0  0
   48.3721   14.6565   21.4252 H   0  0  0  0  0  0  0  0  0  0  0  0
   49.4236   14.1482   20.0987 H   0  0  0  0  0  0  0  0  0  0  0  0
   47.6076    9.6035   17.3600 H   0  0  0  0  0  0  0  0  0  0  0  0
   49.5334   10.2883   14.7350 H   0  0  0  0  0  0  0  0  0  0  0  0
   48.0445    9.0962   19.7965 H   0  0  0  0  0  0  0  0  0  0  0  0
   48.2153    7.0425   18.1705 H   0  0  0  0  0  0  0  0  0  0  0  0
   50.4972    9.7036   20.5948 H   0  0  0  0  0  0  0  0  0  0  0  0
   50.0535    8.0701   20.1032 H   0  0  0  0  0  0  0  0  0  0  0  0
   48.6797   11.7833   16.5748 H   0  0  0  0  0  0  0  0  0  0  0  0
   50.4339   11.9412   16.5737 H   0  0  0  0  0  0  0  0  0  0  0  0
   48.6814    6.2085   15.9345 H   0  0  0  0  0  0  0  0  0  0  0  0
   48.1657    8.4893   14.5680 H   0  0  0  0  0  0  0  0  0  0  0  0
   49.3091   12.9170   18.6088 H   0  0  0  0  0  0  0  0  0  0  0  0
   50.5780   11.7952   18.9581 H   0  0  0  0  0  0  0  0  0  0  0  0
   52.8709    8.2953   19.9947 H   0  0  0  0  0  0  0  0  0  0  0  0
   54.5138    8.0217   18.1465 H   0  0  0  0  0  0  0  0  0  0  0  0
   53.6180    8.8500   14.8074 H   0  0  0  0  0  0  0  0  0  0  0  0
   50.5727    7.0297   14.4537 H   0  0  0  0  0  0  0  0  0  0  0  0
   46.8811   11.4566   18.2794 H   0  0  0  0  0  0  0  0  0  0  0  0
   46.6288   10.9354   19.9578 H   0  0  0  0  0  0  0  0  0  0  0  0
   47.2031   12.5580   19.6248 H   0  0  0  0  0  0  0  0  0  0  0  0
   52.2850    8.4165   16.0644 H   0  0  0  0  0  0  0  0  0  0  0  0
   52.3234   11.4054   17.4373 H   0  0  0  0  0  0  0  0  0  0  0  0
   50.6326    6.5935   15.8230 H   0  0  0  0  0  0  0  0  0  0  0  0
   52.0207    6.6442   18.0671 H   0  0  0  0  0  0  0  0  0  0  0  0
   49.2690    6.6200   17.7463 H   0  0  0  0  0  0  0  0  0  0  0  0
   48.1521    7.1133   16.4739 H   0  0  0  0  0  0  0  0  0  0  0  0
   51.3612   11.2135   15.4307 H   0  0  0  0  0  0  0  0  0  0  0  0
   49.6386   11.0562   15.7497 H   0  0  0  0  0  0  0  0  0  0  0  0
   52.9444    7.9481   19.8743 H   0  0  0  0  0  0  0  0  0  0  0  0
   53.6497   10.1994   18.7528 H   0  0  0  0  0  0  0  0  0  0  0  0
   49.9722   10.0143   13.6817 H   0  0  0  0  0  0  0  0  0  0  0  0
   51.4925    9.2682   14.1395 H   0  0  0  0  0  0  0  0  0  0  0  0
   46.8700    8.0127   18.6975 H   0  0  0  0  0  0  0  0  0  0  0  0
   46.5964    9.9815   20.1275 H   0  0  0  0  0  0  0  0  0  0  0  0
   50.6386    6.9489   13.4399 H   0  0  0  0  0  0  0  0  0  0  0  0
   48.9849    6.5431   13.9505 H   0  0  0  0  0  0  0  0  0  0  0  0
   49.2509    7.8789   12.8447 H   0  0  0  0  0  0  0  0  0  0  0  0
   51.6232   10.9738   20.3428 H   0  0  0  0  0  0  0  0  0  0  0  0
   46.4112   12.4543   20.1733 H   0  0  0  0  0  0  0  0  0  0  0  0
   47.3097   13.3541   21.4038 H   0  0  0  0  0  0  0  0  0  0  0  0
   46.9332   11.6516   21.7081 H   0  0  0  0  0  0  0  0  0  0  0  0
  2  1  1  0
  3  1  2  0
  4  1  1  0
  5  3  1  0
  6  7  1  0
  7  4  2  0
  8  2  2  0
  9 12  2  0
 10  2  1  0
 11 14  2  0
 12 13  1  0
 13 10  1  0
 14 15  1  0
 15 13  2  0
 16 21  2  0
 17  5  1  0
 18  6  1  0
 19  9  1  0
 20 11  1  0
 21  4  1  0
 22 17  1  0
 23 19  1  0
 24 18  1  0
 25 20  1  0
 16  8  1  0
  6  5  2  0
 11  9  1  0
 27 26  1  0
 28 26  1  0
 29 27  2  0
 30 26  1  0
 30 31  1  0
 32 28  1  0
 33 27  1  0
 28 34  1  0
 32 35  1  0
 36 41  1  0
 26 37  1  1
 38 39  1  0
 39 30  1  0
 40 29  1  0
 41 37  1  0
 42 33  2  0
 43 42  1  0
 44 40  1  0
 39 45  1  0
 46 36  1  0
 29 31  1  0
 32 36  1  0
 38 34  2  0
 35 33  1  0
 43 40  2  0
 48 47  1  0
 49 47  1  0
 50 48  2  0
 51 47  1  0
 52 51  1  0
 53 49  1  0
 54 62  1  0
 55 48  1  0
 49 56  1  0
 53 57  1  0
 47 58  1  1
 59 60  1  0
 60 51  1  0
 61 50  1  0
 62 58  1  0
 63 55  2  0
 64 63  1  0
 65 54  1  0
 60 66  1  0
 67 61  1  0
 68 67  1  0
 52 50  1  0
 53 54  1  0
 59 56  2  0
 57 55  1  0
 64 61  2  0
  3 69  1  0
  7 70  1  0
 10 71  1  0
 10 72  1  0
 12 73  1  0
 14 74  1  0
 15 75  1  0
 16 76  1  0
 21 77  1  0
 22 78  1  0
 22 79  1  0
 22 80  1  0
 23 81  1  0
 23 82  1  0
 23 83  1  0
 24 84  1  0
 24 85  1  0
 24 86  1  0
 25 87  1  0
 25 88  1  0
 25 89  1  0
 28 90  1  1
 30 91  1  1
 32 92  1  6
 34 93  1  0
 35 94  1  0
 35 95  1  0
 37 96  1  0
 37 97  1  0
 38 98  1  0
 39 99  1  1
 41100  1  0
 41101  1  0
 42102  1  0
 43103  1  0
 44104  1  0
 45105  1  0
 46106  1  0
 46107  1  0
 46108  1  0
 49109  1  1
 51110  1  1
 53111  1  6
 56112  1  0
 57113  1  0
 57114  1  0
 58115  1  0
 58116  1  0
 59117  1  0
 60118  1  1
 62119  1  0
 62120  1  0
 63121  1  0
 64122  1  0
 65123  1  0
 65124  1  0
 65125  1  0
 66126  1  0
 68127  1  0
 68128  1  0
 68129  1  0
M  END
> <Uni-Dock RESULT> 
ENERGY=   -4.910  LOWER_BOUND=    2.015  UPPER_BOUND=    3.081
INTER + INTRA:          -4.910
INTER:                  -4.910
INTRA:                   0.000
UNBOUND:                 0.000

$$$$

     RDKit          3D

129139  0  0  0  0  0  0  0  0999 V2000
   49.2373    6.5004   18.3737 C   0  0  0  0  0  0  0  0  0  0  0  0
   49.9859    5.7314   17.4447 C   0  0  0  0  0  0  0  0  0  0  0  0
   49.0438    6.1725   19.7370 C   0  0  0  0  0  0  0  0  0  0  0  0
   48.6376    7.6842   17.8918 C   0  0  0  0  0  0  0  0  0  0  0  0
   48.2870    6.9818   20.5951 C   0  0  0  0  0  0  0  0  0  0  0  0
   47.7072    8.1589   20.1012 C   0  0  0  0  0  0  0  0  0  0  0  0
   47.8817    8.4974   18.7541 C   0  0  0  0  0  0  0  0  0  0  0  0
   50.1406    6.0905   16.1376 N   0  0  0  0  0  0  0  0  0  0  0  0
   54.3277    5.3876   18.5033 C   0  0  0  0  0  0  0  0  0  0  0  0
   50.6792    4.4391   17.8288 C   0  0  0  0  0  0  0  0  0  0  0  0
   54.4942    4.9383   19.8273 C   0  0  0  0  0  0  0  0  0  0  0  0
   53.0865    5.2294   17.8715 C   0  0  0  0  0  0  0  0  0  0  0  0
   52.0067    4.6235   18.5337 C   0  0  0  0  0  0  0  0  0  0  0  0
   53.4238    4.3281   20.4871 C   0  0  0  0  0  0  0  0  0  0  0  0
   52.1962    4.1644   19.8418 C   0  0  0  0  0  0  0  0  0  0  0  0
   49.5462    7.2229   15.7262 C   0  0  0  0  0  0  0  0  0  0  0  0
   48.0630    6.7092   21.9236 O   0  0  0  0  0  0  0  0  0  0  0  0
   46.9893    8.9033   21.0014 O   0  0  0  0  0  0  0  0  0  0  0  0
   55.4317    5.9587   17.9170 O   0  0  0  0  0  0  0  0  0  0  0  0
   55.7358    5.1301   20.3822 O   0  0  0  0  0  0  0  0  0  0  0  0
   48.7968    8.0395   16.5507 C   0  0  0  0  0  0  0  0  0  0  0  0
   48.5542    5.4816   22.4396 C   0  0  0  0  0  0  0  0  0  0  0  0
   55.2887    6.4528   16.5927 C   0  0  0  0  0  0  0  0  0  0  0  0
   46.4634   10.1510   20.5696 C   0  0  0  0  0  0  0  0  0  0  0  0
   55.9168    4.7578   21.7413 C   0  0  0  0  0  0  0  0  0  0  0  0
   50.7173    5.5446   19.5990 C   0  0  2  0  0  0  0  0  0  0  0  0
   50.4696    7.0043   19.8020 C   0  0  0  0  0  0  0  0  0  0  0  0
   51.5004    5.3806   18.2877 C   0  0  2  0  0  0  0  0  0  0  0  0
   49.1936    7.2268   20.2571 C   0  0  0  0  0  0  0  0  0  0  0  0
   49.2405    5.0770   19.6060 C   0  0  1  0  0  0  0  0  0  0  0  0
   48.4443    6.0851   20.3335 O   0  0  0  0  0  0  0  0  0  0  0  0
   52.8326    6.1766   18.4702 C   0  0  1  0  0  0  0  0  0  0  0  0
   51.3247    8.0400   19.4603 C   0  0  0  0  0  0  0  0  0  0  0  0
   50.6706    5.7653   17.0837 C   0  0  0  0  0  0  0  0  0  0  0  0
   52.5968    7.7113   18.7223 C   0  0  0  0  0  0  0  0  0  0  0  0
   53.6646    5.6032   19.5649 N   0  0  0  0  0  0  0  0  0  0  0  0
   51.5301    4.9552   20.7668 C   0  0  0  0  0  0  0  0  0  0  0  0
   49.3517    5.5081   17.0548 C   0  0  0  0  0  0  0  0  0  0  0  0
   48.6528    4.8126   18.1924 C   0  0  2  0  0  0  0  0  0  0  0  0
   48.7528    8.5031   20.5211 C   0  0  0  0  0  0  0  0  0  0  0  0
   52.9509    5.5279   20.8489 C   0  0  0  0  0  0  0  0  0  0  0  0
   50.8897    9.3451   19.7210 C   0  0  0  0  0  0  0  0  0  0  0  0
   49.6096    9.5719   20.2650 C   0  0  0  0  0  0  0  0  0  0  0  0
   47.4981    8.7350   20.9876 O   0  0  0  0  0  0  0  0  0  0  0  0
   47.2627    5.1063   18.1479 O   0  0  0  0  0  0  0  0  0  0  0  0
   54.2673    4.3184   19.2048 C   0  0  0  0  0  0  0  0  0  0  0  0
   50.3522    6.5770   20.1379 C   0  0  2  0  0  0  0  0  0  0  0  0
   51.4519    6.0943   19.2405 C   0  0  0  0  0  0  0  0  0  0  0  0
   49.3665    7.4060   19.3070 C   0  0  2  0  0  0  0  0  0  0  0  0
   52.6532    6.0552   19.9204 C   0  0  0  0  0  0  0  0  0  0  0  0
   51.2567    7.3079   21.1513 C   0  0  1  0  0  0  0  0  0  0  0  0
   52.5508    6.6052   21.1785 O   0  0  0  0  0  0  0  0  0  0  0  0
   48.8927    6.4641   18.1417 C   0  0  2  0  0  0  0  0  0  0  0  0
   48.3258    5.1798   18.6380 N   0  0  0  0  0  0  0  0  0  0  0  0
   51.3532    5.7897   17.8955 C   0  0  0  0  0  0  0  0  0  0  0  0
   49.9391    8.7314   18.8739 C   0  0  0  0  0  0  0  0  0  0  0  0
   50.0650    6.1007   17.1781 C   0  0  0  0  0  0  0  0  0  0  0  0
   49.6292    5.3530   20.7553 C   0  0  0  0  0  0  0  0  0  0  0  0
   50.8920    9.3560   19.5829 C   0  0  0  0  0  0  0  0  0  0  0  0
   51.4707    8.8279   20.8647 C   0  0  2  0  0  0  0  0  0  0  0  0
   53.8056    5.5717   19.3247 C   0  0  0  0  0  0  0  0  0  0  0  0
   48.2740    5.0621   20.0938 C   0  0  0  0  0  0  0  0  0  0  0  0
   52.5051    5.3265   17.2614 C   0  0  0  0  0  0  0  0  0  0  0  0
   53.7147    5.1968   17.9766 C   0  0  0  0  0  0  0  0  0  0  0  0
   47.0360    4.8783   18.0239 C   0  0  0  0  0  0  0  0  0  0  0  0
   52.8492    9.2041   20.9034 O   0  0  0  0  0  0  0  0  0  0  0  0
   54.9317    5.5398   20.0947 O   0  0  0  0  0  0  0  0  0  0  0  0
   56.0141    4.7669   19.5933 C   0  0  0  0  0  0  0  0  0  0  0  0
   49.4975    5.2694   20.1229 H   0  0  0  0  0  0  0  0  0  0  0  0
   47.4277    9.3982   18.3508 H   0  0  0  0  0  0  0  0  0  0  0  0
   50.0006    3.8220   18.4247 H   0  0  0  0  0  0  0  0  0  0  0  0
   50.8637    3.8500   16.9197 H   0  0  0  0  0  0  0  0  0  0  0  0
   52.9314    5.5712   16.8525 H   0  0  0  0  0  0  0  0  0  0  0  0
   53.5113    3.9649   21.5062 H   0  0  0  0  0  0  0  0  0  0  0  0
   51.3819    3.6734   20.3793 H   0  0  0  0  0  0  0  0  0  0  0  0
   49.6900    7.4700   14.6778 H   0  0  0  0  0  0  0  0  0  0  0  0
   48.3470    8.9385   16.1419 H   0  0  0  0  0  0  0  0  0  0  0  0
   49.6480    5.4570   22.4162 H   0  0  0  0  0  0  0  0  0  0  0  0
   48.1248    4.6257   21.9072 H   0  0  0  0  0  0  0  0  0  0  0  0
   48.2422    5.4097   23.4864 H   0  0  0  0  0  0  0  0  0  0  0  0
   56.2531    6.8706   16.2885 H   0  0  0  0  0  0  0  0  0  0  0  0
   54.5495    7.2608   16.5522 H   0  0  0  0  0  0  0  0  0  0  0  0
   55.0396    5.6485   15.8933 H   0  0  0  0  0  0  0  0  0  0  0  0
   47.2529   10.8082   20.1958 H   0  0  0  0  0  0  0  0  0  0  0  0
   45.6792   10.0027   19.8234 H   0  0  0  0  0  0  0  0  0  0  0  0
   46.0106   10.6405   21.4366 H   0  0  0  0  0  0  0  0  0  0  0  0
   55.7926    3.6788   21.8772 H   0  0  0  0  0  0  0  0  0  0  0  0
   56.9440    5.0085   22.0241 H   0  0  0  0  0  0  0  0  0  0  0  0
   55.2453    5.3195   22.3999 H   0  0  0  0  0  0  0  0  0  0  0  0
   51.7440    4.3200   18.1345 H   0  0  0  0  0  0  0  0  0  0  0  0
   49.1294    4.1496   20.1847 H   0  0  0  0  0  0  0  0  0  0  0  0
   53.4228    6.1145   17.5458 H   0  0  0  0  0  0  0  0  0  0  0  0
   51.1580    6.2134   16.2223 H   0  0  0  0  0  0  0  0  0  0  0  0
   53.4580    8.1481   19.2444 H   0  0  0  0  0  0  0  0  0  0  0  0
   52.5375    8.2027   17.7422 H   0  0  0  0  0  0  0  0  0  0  0  0
   51.5908    3.8645   20.6418 H   0  0  0  0  0  0  0  0  0  0  0  0
   51.0232    5.1318   21.7251 H   0  0  0  0  0  0  0  0  0  0  0  0
   48.7741    5.7380   16.1648 H   0  0  0  0  0  0  0  0  0  0  0  0
   48.7461    3.7371   17.9898 H   0  0  0  0  0  0  0  0  0  0  0  0
   53.5336    4.9475   21.5751 H   0  0  0  0  0  0  0  0  0  0  0  0
   52.9113    6.5344   21.2833 H   0  0  0  0  0  0  0  0  0  0  0  0
   51.5247   10.1942   19.4767 H   0  0  0  0  0  0  0  0  0  0  0  0
   49.2716   10.5907   20.4545 H   0  0  0  0  0  0  0  0  0  0  0  0
   47.1322    7.8537   21.2092 H   0  0  0  0  0  0  0  0  0  0  0  0
   47.1873    6.0804   18.1165 H   0  0  0  0  0  0  0  0  0  0  0  0
   53.5340    3.5128   19.1096 H   0  0  0  0  0  0  0  0  0  0  0  0
   54.8194    4.3972   18.2622 H   0  0  0  0  0  0  0  0  0  0  0  0
   54.9969    4.0187   19.9648 H   0  0  0  0  0  0  0  0  0  0  0  0
   48.4889    7.6654   19.9174 H   0  0  0  0  0  0  0  0  0  0  0  0
   50.8485    7.2242   22.1664 H   0  0  0  0  0  0  0  0  0  0  0  0
   48.1358    7.0079   17.5605 H   0  0  0  0  0  0  0  0  0  0  0  0
   49.5390    9.2034   17.9800 H   0  0  0  0  0  0  0  0  0  0  0  0
   50.2503    6.9598   16.5186 H   0  0  0  0  0  0  0  0  0  0  0  0
   49.7868    5.2584   16.5308 H   0  0  0  0  0  0  0  0  0  0  0  0
   49.4334    5.5306   21.8223 H   0  0  0  0  0  0  0  0  0  0  0  0
   50.2565    4.4516   20.7032 H   0  0  0  0  0  0  0  0  0  0  0  0
   51.2554   10.3248   19.2512 H   0  0  0  0  0  0  0  0  0  0  0  0
   50.9814    9.3885   21.6744 H   0  0  0  0  0  0  0  0  0  0  0  0
   47.9762    4.0450   20.3746 H   0  0  0  0  0  0  0  0  0  0  0  0
   47.5079    5.7302   20.5102 H   0  0  0  0  0  0  0  0  0  0  0  0
   52.4808    5.0826   16.2008 H   0  0  0  0  0  0  0  0  0  0  0  0
   54.5834    4.8377   17.4316 H   0  0  0  0  0  0  0  0  0  0  0  0
   46.2803    5.6371   18.2559 H   0  0  0  0  0  0  0  0  0  0  0  0
   47.1377    4.8079   16.9377 H   0  0  0  0  0  0  0  0  0  0  0  0
   46.6607    3.9085   18.3665 H   0  0  0  0  0  0  0  0  0  0  0  0
   53.3607    8.3693   20.9433 H   0  0  0  0  0  0  0  0  0  0  0  0
   55.6994    3.7433   19.3571 H   0  0  0  0  0  0  0  0  0  0  0  0
   56.7759    4.7066   20.3791 H   0  0  0  0  0  0  0  0  0  0  0  0
   56.4706    5.2519   18.7231 H   0  0  0  0  0  0  0  0  0  0  0  0
  2  1  1  0
  3  1  2  0
  4  1  1  0
  5  3  1  0
  6  7  1  0
  7  4  2  0
  8  2  2  0
  9 12  2  0
 10  2  1  0
 11 14  2  0
 12 13  1  0
 13 10  1  0
 14 15  1  0
 15 13  2  0
 16 21  2  0
 17  5  1  0
 18  6  1  0
 19  9  1  0
 20 11  1  0
 21  4  1  0
 22 17  1  0
 23 19  1  0
 24 18  1  0
 25 20  1  0
 16  8  1  0
  6  5  2  0
 11  9  1  0
 27 26  1  0
 28 26  1  0
 29 27  2  0
 30 26  1  0
 30 31  1  0
 32 28  1  0
 33 27  1  0
 28 34  1  0
 32 35  1  0
 36 41  1  0
 26 37  1  1
 38 39  1  0
 39 30  1  0
 40 29  1  0
 41 37  1  0
 42 33  2  0
 43 42  1  0
 44 40  1  0
 39 45  1  0
 46 36  1  0
 29 31  1  0
 32 36  1  0
 38 34  2  0
 35 33  1  0
 43 40  2  0
 48 47  1  0
 49 47  1  0
 50 48  2  0
 51 47  1  0
 52 51  1  0
 53 49  1  0
 54 62  1  0
 55 48  1  0
 49 56  1  0
 53 57  1  0
 47 58  1  1
 59 60  1  0
 60 51  1  0
 61 50  1  0
 62 58  1  0
 63 55  2  0
 64 63  1  0
 65 54  1  0
 60 66  1  0
 67 61  1  0
 68 67  1  0
 52 50  1  0
 53 54  1  0
 59 56  2  0
 57 55  1  0
 64 61  2  0
  3 69  1  0
  7 70  1  0
 10 71  1  0
 10 72  1  0
 12 73  1  0
 14 74  1  0
 15 75  1  0
 16 76  1  0
 21 77  1  0
 22 78  1  0
 22 79  1  0
 22 80  1  0
 23 81  1  0
 23 82  1  0
 23 83  1  0
 24 84  1  0
 24 85  1  0
 24 86  1  0
 25 87  1  0
 25 88  1  0
 25 89  1  0
 28 90  1  1
 30 91  1  1
 32 92  1  6
 34 93  1  0
 35 94  1  0
 35 95  1  0
 37 96  1  0
 37 97  1  0
 38 98  1  0
 39 99  1  1
 41100  1  0
 41101  1  0
 42102  1  0
 43103  1  0
 44104  1  0
 45105  1  0
 46106  1  0
 46107  1  0
 46108  1  0
 49109  1  1
 51110  1  1
 53111  1  6
 56112  1  0
 57113  1  0
 57114  1  0
 58115  1  0
 58116  1  0
 59117  1  0
 60118  1  1
 62119  1  0
 62120  1  0
 63121  1  0
 64122  1  0
 65123  1  0
 65124  1  0
 65125  1  0
 66126  1  0
 68127  1  0
 68128  1  0
 68129  1  0
M  END
> <Uni-Dock RESULT> 
ENERGY=   -4.859  LOWER_BOUND=    1.971  UPPER_BOUND=    5.978
INTER + INTRA:          -4.859
INTER:                  -4.859
INTRA:                   0.000
UNBOUND:                 0.000

$$$$
