
     RDKit          3D

129139  0  0  0  0  0  0  0  0999 V2000
   47.9241   10.0910   21.4052 C   0  0  0  0  0  0  0  0  0  0  0  0
   47.7050   11.4464   21.0483 C   0  0  0  0  0  0  0  0  0  0  0  0
   47.6325    8.9725   20.5852 C   0  0  0  0  0  0  0  0  0  0  0  0
   48.4727    9.8455   22.6822 C   0  0  0  0  0  0  0  0  0  0  0  0
   47.8695    7.6599   21.0130 C   0  0  0  0  0  0  0  0  0  0  0  0
   48.4233    7.4356   22.2836 C   0  0  0  0  0  0  0  0  0  0  0  0
   48.7181    8.5272   23.1057 C   0  0  0  0  0  0  0  0  0  0  0  0
   47.9942   12.4887   21.8771 N   0  0  0  0  0  0  0  0  0  0  0  0
   48.9857   11.1172   16.4205 C   0  0  0  0  0  0  0  0  0  0  0  0
   47.1473   11.8547   19.6982 C   0  0  0  0  0  0  0  0  0  0  0  0
   50.0680   12.0141   16.4963 C   0  0  0  0  0  0  0  0  0  0  0  0
   48.0371   11.0744   17.4516 C   0  0  0  0  0  0  0  0  0  0  0  0
   48.1732   11.8894   18.5851 C   0  0  0  0  0  0  0  0  0  0  0  0
   50.2009   12.8301   17.6234 C   0  0  0  0  0  0  0  0  0  0  0  0
   49.2629   12.7661   18.6572 C   0  0  0  0  0  0  0  0  0  0  0  0
   48.5153   12.2050   23.0840 C   0  0  0  0  0  0  0  0  0  0  0  0
   47.6025    6.5393   20.2663 O   0  0  0  0  0  0  0  0  0  0  0  0
   48.6281    6.1230   22.6296 O   0  0  0  0  0  0  0  0  0  0  0  0
   48.8982   10.3540   15.2812 O   0  0  0  0  0  0  0  0  0  0  0  0
   50.9385   12.0042   15.4356 O   0  0  0  0  0  0  0  0  0  0  0  0
   48.7699   10.9213   23.5241 C   0  0  0  0  0  0  0  0  0  0  0  0
   46.9511    6.7113   19.0166 C   0  0  0  0  0  0  0  0  0  0  0  0
   48.2518    9.0961   15.4211 C   0  0  0  0  0  0  0  0  0  0  0  0
   49.2277    5.8547   23.8886 C   0  0  0  0  0  0  0  0  0  0  0  0
   51.9674   12.9833   15.4249 C   0  0  0  0  0  0  0  0  0  0  0  0
   48.1899    9.2904   19.2685 C   0  0  2  0  0  0  0  0  0  0  0  0
   48.6819   10.6601   18.9046 C   0  0  0  0  0  0  0  0  0  0  0  0
   49.2124    8.6339   20.2031 C   0  0  2  0  0  0  0  0  0  0  0  0
   48.3511   10.9632   17.6012 C   0  0  0  0  0  0  0  0  0  0  0  0
   48.0689    8.7535   17.8259 C   0  0  1  0  0  0  0  0  0  0  0  0
   47.7796    9.8993   16.9483 O   0  0  0  0  0  0  0  0  0  0  0  0
   49.3688    9.6100   21.4223 C   0  0  1  0  0  0  0  0  0  0  0  0
   49.4478   11.5031   19.6927 C   0  0  0  0  0  0  0  0  0  0  0  0
   50.4983    8.2735   19.5012 C   0  0  0  0  0  0  0  0  0  0  0  0
   49.9848   10.9837   21.0014 C   0  0  0  0  0  0  0  0  0  0  0  0
   48.0702    9.9083   22.0872 N   0  0  0  0  0  0  0  0  0  0  0  0
   46.8194    9.4174   19.9802 C   0  0  0  0  0  0  0  0  0  0  0  0
   50.5315    7.9877   18.1905 C   0  0  0  0  0  0  0  0  0  0  0  0
   49.3186    7.9791   17.3041 C   0  0  2  0  0  0  0  0  0  0  0  0
   48.6706   12.1901   17.0626 C   0  0  0  0  0  0  0  0  0  0  0  0
   46.9171    9.2255   21.5029 C   0  0  0  0  0  0  0  0  0  0  0  0
   49.7817   12.7508   19.1592 C   0  0  0  0  0  0  0  0  0  0  0  0
   49.3750   13.1021   17.8550 C   0  0  0  0  0  0  0  0  0  0  0  0
   48.3333   12.4741   15.7752 O   0  0  0  0  0  0  0  0  0  0  0  0
   49.7298    8.4173   16.0096 O   0  0  0  0  0  0  0  0  0  0  0  0
   48.1371    9.6981   23.5316 C   0  0  0  0  0  0  0  0  0  0  0  0
   48.8313   10.2185   20.5722 C   0  0  2  0  0  0  0  0  0  0  0  0
   49.0139   10.0657   19.0971 C   0  0  0  0  0  0  0  0  0  0  0  0
   47.5798    9.4432   21.0008 C   0  0  2  0  0  0  0  0  0  0  0  0
   49.4652   11.2393   18.5328 C   0  0  0  0  0  0  0  0  0  0  0  0
   48.7667   11.7588   20.6089 C   0  0  1  0  0  0  0  0  0  0  0  0
   49.5244   12.2623   19.4498 O   0  0  0  0  0  0  0  0  0  0  0  0
   47.8147    7.9579   20.5724 C   0  0  2  0  0  0  0  0  0  0  0  0
   48.9791    7.3597   21.2845 N   0  0  0  0  0  0  0  0  0  0  0  0
   48.6943    8.9497   18.3476 C   0  0  0  0  0  0  0  0  0  0  0  0
   46.3109   10.0691   20.4722 C   0  0  0  0  0  0  0  0  0  0  0  0
   47.9895    7.7994   19.0192 C   0  0  0  0  0  0  0  0  0  0  0  0
   50.0589    9.6551   21.3173 C   0  0  0  0  0  0  0  0  0  0  0  0
   46.2129   11.3943   20.2861 C   0  0  0  0  0  0  0  0  0  0  0  0
   47.3259   12.3529   20.6022 C   0  0  2  0  0  0  0  0  0  0  0  0
   49.7392   11.3287   17.1798 C   0  0  0  0  0  0  0  0  0  0  0  0
   50.2177    8.1379   21.1259 C   0  0  0  0  0  0  0  0  0  0  0  0
   48.9596    9.0095   16.9803 C   0  0  0  0  0  0  0  0  0  0  0  0
   49.4969   10.1839   16.4046 C   0  0  0  0  0  0  0  0  0  0  0  0
   48.6975    7.0799   22.6921 C   0  0  0  0  0  0  0  0  0  0  0  0
   47.2102   13.4651   19.7167 O   0  0  0  0  0  0  0  0  0  0  0  0
   50.1915   12.5321   16.7242 O   0  0  0  0  0  0  0  0  0  0  0  0
   50.4820   12.6263   15.3362 C   0  0  0  0  0  0  0  0  0  0  0  0
   47.2159    9.1439   19.6014 H   0  0  0  0  0  0  0  0  0  0  0  0
   49.1426    8.3735   24.0931 H   0  0  0  0  0  0  0  0  0  0  0  0
   46.3009   11.2086   19.4367 H   0  0  0  0  0  0  0  0  0  0  0  0
   46.7118   12.8601   19.7810 H   0  0  0  0  0  0  0  0  0  0  0  0
   47.1720   10.4249   17.3724 H   0  0  0  0  0  0  0  0  0  0  0  0
   51.0251   13.5272   17.7326 H   0  0  0  0  0  0  0  0  0  0  0  0
   49.3853   13.4144   19.5248 H   0  0  0  0  0  0  0  0  0  0  0  0
   48.7317   13.0655   23.7105 H   0  0  0  0  0  0  0  0  0  0  0  0
   49.1935   10.7712   24.5119 H   0  0  0  0  0  0  0  0  0  0  0  0
   45.9767    7.1962   19.1404 H   0  0  0  0  0  0  0  0  0  0  0  0
   46.7760    5.7186   18.5903 H   0  0  0  0  0  0  0  0  0  0  0  0
   47.5837    7.2660   18.3161 H   0  0  0  0  0  0  0  0  0  0  0  0
   48.4907    8.4977   14.5364 H   0  0  0  0  0  0  0  0  0  0  0  0
   48.6126    8.5506   16.2999 H   0  0  0  0  0  0  0  0  0  0  0  0
   47.1647    9.2194   15.4541 H   0  0  0  0  0  0  0  0  0  0  0  0
   49.3338    4.7698   23.9843 H   0  0  0  0  0  0  0  0  0  0  0  0
   50.2294    6.2933   23.9514 H   0  0  0  0  0  0  0  0  0  0  0  0
   48.5906    6.1995   24.7094 H   0  0  0  0  0  0  0  0  0  0  0  0
   52.6699   12.8256   16.2501 H   0  0  0  0  0  0  0  0  0  0  0  0
   52.5250   12.8722   14.4898 H   0  0  0  0  0  0  0  0  0  0  0  0
   51.5519   13.9966   15.4455 H   0  0  0  0  0  0  0  0  0  0  0  0
   48.8190    7.6769   20.5755 H   0  0  0  0  0  0  0  0  0  0  0  0
   47.2086    8.0789   17.7353 H   0  0  0  0  0  0  0  0  0  0  0  0
   50.0561    9.1427   22.1413 H   0  0  0  0  0  0  0  0  0  0  0  0
   51.4110    8.2080   20.0881 H   0  0  0  0  0  0  0  0  0  0  0  0
   49.8361   11.7321   21.7898 H   0  0  0  0  0  0  0  0  0  0  0  0
   51.0689   10.8538   20.8877 H   0  0  0  0  0  0  0  0  0  0  0  0
   46.3466   10.3862   19.7696 H   0  0  0  0  0  0  0  0  0  0  0  0
   46.1282    8.6514   19.6064 H   0  0  0  0  0  0  0  0  0  0  0  0
   51.4724    7.6998   17.7276 H   0  0  0  0  0  0  0  0  0  0  0  0
   49.0335    6.9258   17.1884 H   0  0  0  0  0  0  0  0  0  0  0  0
   45.9911    9.6067   21.9510 H   0  0  0  0  0  0  0  0  0  0  0  0
   46.9479    8.1517   21.7311 H   0  0  0  0  0  0  0  0  0  0  0  0
   50.3808   13.4493   19.7384 H   0  0  0  0  0  0  0  0  0  0  0  0
   49.6556   14.0763   17.4656 H   0  0  0  0  0  0  0  0  0  0  0  0
   48.6256   13.3766   15.5704 H   0  0  0  0  0  0  0  0  0  0  0  0
   49.2337    9.2410   15.8269 H   0  0  0  0  0  0  0  0  0  0  0  0
   48.3064    8.6446   23.7827 H   0  0  0  0  0  0  0  0  0  0  0  0
   48.9449   10.2936   23.9724 H   0  0  0  0  0  0  0  0  0  0  0  0
   47.2090   10.0238   24.0148 H   0  0  0  0  0  0  0  0  0  0  0  0
   47.4787    9.4831   22.0940 H   0  0  0  0  0  0  0  0  0  0  0  0
   49.2830   12.1473   21.4963 H   0  0  0  0  0  0  0  0  0  0  0  0
   46.9304    7.3616   20.8350 H   0  0  0  0  0  0  0  0  0  0  0  0
   45.4522    9.4314   20.2778 H   0  0  0  0  0  0  0  0  0  0  0  0
   48.5056    6.8591   18.7879 H   0  0  0  0  0  0  0  0  0  0  0  0
   46.9872    7.7276   18.5762 H   0  0  0  0  0  0  0  0  0  0  0  0
   50.9825   10.1482   20.9869 H   0  0  0  0  0  0  0  0  0  0  0  0
   49.9566    9.8729   22.3886 H   0  0  0  0  0  0  0  0  0  0  0  0
   45.2767   11.8245   19.9395 H   0  0  0  0  0  0  0  0  0  0  0  0
   47.1168   12.7405   21.6069 H   0  0  0  0  0  0  0  0  0  0  0  0
   50.9943    7.7667   21.8070 H   0  0  0  0  0  0  0  0  0  0  0  0
   50.6227    7.9413   20.1258 H   0  0  0  0  0  0  0  0  0  0  0  0
   48.7330    8.1591   16.3410 H   0  0  0  0  0  0  0  0  0  0  0  0
   49.6790   10.1777   15.3343 H   0  0  0  0  0  0  0  0  0  0  0  0
   48.5920    7.9849   23.2986 H   0  0  0  0  0  0  0  0  0  0  0  0
   49.5044    6.4773   23.1252 H   0  0  0  0  0  0  0  0  0  0  0  0
   47.7831    6.4858   22.7962 H   0  0  0  0  0  0  0  0  0  0  0  0
   47.9480   13.3842   19.0801 H   0  0  0  0  0  0  0  0  0  0  0  0
   51.2740   11.9264   15.0490 H   0  0  0  0  0  0  0  0  0  0  0  0
   50.8455   13.6395   15.1383 H   0  0  0  0  0  0  0  0  0  0  0  0
   49.5805   12.4732   14.7336 H   0  0  0  0  0  0  0  0  0  0  0  0
  2  1  1  0
  3  1  2  0
  4  1  1  0
  5  3  1  0
  6  7  1  0
  7  4  2  0
  8  2  2  0
  9 12  2  0
 10  2  1  0
 11 14  2  0
 12 13  1  0
 13 10  1  0
 14 15  1  0
 15 13  2  0
 16 21  2  0
 17  5  1  0
 18  6  1  0
 19  9  1  0
 20 11  1  0
 21  4  1  0
 22 17  1  0
 23 19  1  0
 24 18  1  0
 25 20  1  0
 16  8  1  0
  6  5  2  0
 11  9  1  0
 27 26  1  0
 28 26  1  0
 29 27  2  0
 30 26  1  0
 30 31  1  0
 32 28  1  0
 33 27  1  0
 28 34  1  0
 32 35  1  0
 36 41  1  0
 26 37  1  6
 38 39  1  0
 39 30  1  0
 40 29  1  0
 41 37  1  0
 42 33  2  0
 43 42  1  0
 44 40  1  0
 39 45  1  0
 46 36  1  0
 29 31  1  0
 32 36  1  0
 38 34  2  0
 35 33  1  0
 43 40  2  0
 48 47  1  0
 49 47  1  0
 50 48  2  0
 51 47  1  0
 52 51  1  0
 53 49  1  0
 54 62  1  0
 55 48  1  0
 49 56  1  0
 53 57  1  0
 47 58  1  1
 59 60  1  0
 60 51  1  0
 61 50  1  0
 62 58  1  0
 63 55  2  0
 64 63  1  0
 65 54  1  0
 60 66  1  0
 67 61  1  0
 68 67  1  0
 52 50  1  0
 53 54  1  0
 59 56  2  0
 57 55  1  0
 64 61  2  0
  3 69  1  0
  7 70  1  0
 10 71  1  0
 10 72  1  0
 12 73  1  0
 14 74  1  0
 15 75  1  0
 16 76  1  0
 21 77  1  0
 22 78  1  0
 22 79  1  0
 22 80  1  0
 23 81  1  0
 23 82  1  0
 23 83  1  0
 24 84  1  0
 24 85  1  0
 24 86  1  0
 25 87  1  0
 25 88  1  0
 25 89  1  0
 28 90  1  6
 30 91  1  6
 32 92  1  1
 34 93  1  0
 35 94  1  0
 35 95  1  0
 37 96  1  0
 37 97  1  0
 38 98  1  0
 39 99  1  6
 41100  1  0
 41101  1  0
 42102  1  0
 43103  1  0
 44104  1  0
 45105  1  0
 46106  1  0
 46107  1  0
 46108  1  0
 49109  1  6
 51110  1  1
 53111  1  6
 56112  1  0
 57113  1  0
 57114  1  0
 58115  1  0
 58116  1  0
 59117  1  0
 60118  1  6
 62119  1  0
 62120  1  0
 63121  1  0
 64122  1  0
 65123  1  0
 65124  1  0
 65125  1  0
 66126  1  0
 68127  1  0
 68128  1  0
 68129  1  0
M  END
> <Uni-Dock RESULT> 
ENERGY=   -6.942  LOWER_BOUND=    0.000  UPPER_BOUND=    0.000
INTER + INTRA:          -6.942
INTER:                  -6.942
INTRA:                   0.000
UNBOUND:                 0.000

$$$$

     RDKit          3D

129139  0  0  0  0  0  0  0  0999 V2000
   49.9644    7.1471   21.6860 C   0  0  0  0  0  0  0  0  0  0  0  0
   48.6098    6.7273   21.6505 C   0  0  0  0  0  0  0  0  0  0  0  0
   51.0849    6.3138   21.4444 C   0  0  0  0  0  0  0  0  0  0  0  0
   50.2067    8.5036   21.9912 C   0  0  0  0  0  0  0  0  0  0  0  0
   52.3966    6.8014   21.5068 C   0  0  0  0  0  0  0  0  0  0  0  0
   52.6178    8.1558   21.8040 C   0  0  0  0  0  0  0  0  0  0  0  0
   51.5242    8.9927   22.0444 C   0  0  0  0  0  0  0  0  0  0  0  0
   47.5654    7.5664   21.8995 N   0  0  0  0  0  0  0  0  0  0  0  0
   48.9541    3.7304   17.9001 C   0  0  0  0  0  0  0  0  0  0  0  0
   48.2048    5.3059   21.3094 C   0  0  0  0  0  0  0  0  0  0  0  0
   48.0583    4.4250   17.0655 C   0  0  0  0  0  0  0  0  0  0  0  0
   48.9927    4.0093   19.2733 C   0  0  0  0  0  0  0  0  0  0  0  0
   48.1746    5.0059   19.8256 C   0  0  0  0  0  0  0  0  0  0  0  0
   47.2392    5.4145   17.6166 C   0  0  0  0  0  0  0  0  0  0  0  0
   47.2990    5.7019   18.9828 C   0  0  0  0  0  0  0  0  0  0  0  0
   47.8462    8.8501   22.1859 C   0  0  0  0  0  0  0  0  0  0  0  0
   53.5191    6.0419   21.2882 O   0  0  0  0  0  0  0  0  0  0  0  0
   53.9296    8.5583   21.8445 O   0  0  0  0  0  0  0  0  0  0  0  0
   49.7206    2.7575   17.3050 O   0  0  0  0  0  0  0  0  0  0  0  0
   48.0724    4.0764   15.7384 O   0  0  0  0  0  0  0  0  0  0  0  0
   49.1288    9.3580   22.2412 C   0  0  0  0  0  0  0  0  0  0  0  0
   53.3500    4.6475   21.0825 C   0  0  0  0  0  0  0  0  0  0  0  0
   50.9773    2.4939   17.9140 C   0  0  0  0  0  0  0  0  0  0  0  0
   54.1950    9.9302   22.0979 C   0  0  0  0  0  0  0  0  0  0  0  0
   47.0946    4.6694   14.8961 C   0  0  0  0  0  0  0  0  0  0  0  0
   50.7716    5.5736   20.2198 C   0  0  2  0  0  0  0  0  0  0  0  0
   49.4036    5.5651   19.6043 C   0  0  0  0  0  0  0  0  0  0  0  0
   51.4266    6.9314   19.9415 C   0  0  2  0  0  0  0  0  0  0  0  0
   49.1039    4.3149   19.1070 C   0  0  0  0  0  0  0  0  0  0  0  0
   51.3126    4.3350   19.4734 C   0  0  1  0  0  0  0  0  0  0  0  0
   50.1690    3.4526   19.1899 O   0  0  0  0  0  0  0  0  0  0  0  0
   50.4471    8.0090   20.5271 C   0  0  1  0  0  0  0  0  0  0  0  0
   48.5592    6.6511   19.4437 C   0  0  0  0  0  0  0  0  0  0  0  0
   51.7906    7.1175   18.4893 C   0  0  0  0  0  0  0  0  0  0  0  0
   49.0754    8.0270   19.7777 C   0  0  0  0  0  0  0  0  0  0  0  0
   50.1452    7.7855   21.9681 N   0  0  0  0  0  0  0  0  0  0  0  0
   50.6408    5.3461   21.7470 C   0  0  0  0  0  0  0  0  0  0  0  0
   52.0803    6.0758   17.6945 C   0  0  0  0  0  0  0  0  0  0  0  0
   52.0901    4.6466   18.1572 C   0  0  2  0  0  0  0  0  0  0  0  0
   47.8790    4.0639   18.5290 C   0  0  0  0  0  0  0  0  0  0  0  0
   50.8284    6.6371   22.5613 C   0  0  0  0  0  0  0  0  0  0  0  0
   47.3135    6.4127   18.8570 C   0  0  0  0  0  0  0  0  0  0  0  0
   46.9655    5.1173   18.4206 C   0  0  0  0  0  0  0  0  0  0  0  0
   47.5984    2.8228   18.0465 O   0  0  0  0  0  0  0  0  0  0  0  0
   51.6562    3.8385   17.0638 O   0  0  0  0  0  0  0  0  0  0  0  0
   50.3512    8.9950   22.7615 C   0  0  0  0  0  0  0  0  0  0  0  0
   49.8404    7.0042   20.4624 C   0  0  2  0  0  0  0  0  0  0  0  0
   49.9978    5.9167   19.4498 C   0  0  0  0  0  0  0  0  0  0  0  0
   50.6129    6.6187   21.7295 C   0  0  2  0  0  0  0  0  0  0  0  0
   48.8265    5.7223   18.7502 C   0  0  0  0  0  0  0  0  0  0  0  0
   48.3000    6.9934   20.5320 C   0  0  1  0  0  0  0  0  0  0  0  0
   47.8008    6.4981   19.2372 O   0  0  0  0  0  0  0  0  0  0  0  0
   52.0998    6.4119   21.2920 C   0  0  2  0  0  0  0  0  0  0  0  0
   52.6973    7.6726   20.7681 N   0  0  0  0  0  0  0  0  0  0  0  0
   51.1156    5.1241   19.2722 C   0  0  0  0  0  0  0  0  0  0  0  0
   49.9870    5.4453   22.4456 C   0  0  0  0  0  0  0  0  0  0  0  0
   52.2631    5.2567   20.2400 C   0  0  0  0  0  0  0  0  0  0  0  0
   50.4031    8.3286   19.9065 C   0  0  0  0  0  0  0  0  0  0  0  0
   48.6623    5.2349   22.4122 C   0  0  0  0  0  0  0  0  0  0  0  0
   47.7041    6.1421   21.6935 C   0  0  2  0  0  0  0  0  0  0  0  0
   48.7413    4.7870   17.7345 C   0  0  0  0  0  0  0  0  0  0  0  0
   51.9211    8.2692   19.6697 C   0  0  0  0  0  0  0  0  0  0  0  0
   51.0601    4.1720   18.2553 C   0  0  0  0  0  0  0  0  0  0  0  0
   49.8881    4.0188   17.4793 C   0  0  0  0  0  0  0  0  0  0  0  0
   52.9726    8.6481   21.8224 C   0  0  0  0  0  0  0  0  0  0  0  0
   46.5944    5.3551   21.2649 O   0  0  0  0  0  0  0  0  0  0  0  0
   47.5398    4.6811   17.0978 O   0  0  0  0  0  0  0  0  0  0  0  0
   47.4501    3.7271   16.0483 C   0  0  0  0  0  0  0  0  0  0  0  0
   50.9159    5.2722   21.2044 H   0  0  0  0  0  0  0  0  0  0  0  0
   51.6754   10.0417   22.2799 H   0  0  0  0  0  0  0  0  0  0  0  0
   48.8506    4.5988   21.8434 H   0  0  0  0  0  0  0  0  0  0  0  0
   47.1986    5.1159   21.7080 H   0  0  0  0  0  0  0  0  0  0  0  0
   49.6414    3.4389   19.9294 H   0  0  0  0  0  0  0  0  0  0  0  0
   46.5428    5.9851   17.0112 H   0  0  0  0  0  0  0  0  0  0  0  0
   46.6483    6.4754   19.3907 H   0  0  0  0  0  0  0  0  0  0  0  0
   46.9841    9.4830   22.3757 H   0  0  0  0  0  0  0  0  0  0  0  0
   49.2766   10.4068   22.4779 H   0  0  0  0  0  0  0  0  0  0  0  0
   52.8635    4.1754   21.9430 H   0  0  0  0  0  0  0  0  0  0  0  0
   54.3437    4.2010   20.9771 H   0  0  0  0  0  0  0  0  0  0  0  0
   52.7980    4.4500   20.1579 H   0  0  0  0  0  0  0  0  0  0  0  0
   51.5786    1.9183   17.2033 H   0  0  0  0  0  0  0  0  0  0  0  0
   51.5206    3.4182   18.1386 H   0  0  0  0  0  0  0  0  0  0  0  0
   50.8525    1.8829   18.8136 H   0  0  0  0  0  0  0  0  0  0  0  0
   55.2797   10.0718   22.0710 H   0  0  0  0  0  0  0  0  0  0  0  0
   53.7574   10.5678   21.3222 H   0  0  0  0  0  0  0  0  0  0  0  0
   53.8469   10.2208   23.0944 H   0  0  0  0  0  0  0  0  0  0  0  0
   47.2507    5.7500   14.8114 H   0  0  0  0  0  0  0  0  0  0  0  0
   47.2092    4.2391   13.8964 H   0  0  0  0  0  0  0  0  0  0  0  0
   46.0807    4.4407   15.2420 H   0  0  0  0  0  0  0  0  0  0  0  0
   52.3820    7.0039   20.4811 H   0  0  0  0  0  0  0  0  0  0  0  0
   51.9864    3.7583   20.1189 H   0  0  0  0  0  0  0  0  0  0  0  0
   50.9131    8.9952   20.3934 H   0  0  0  0  0  0  0  0  0  0  0  0
   51.8555    8.1283   18.0944 H   0  0  0  0  0  0  0  0  0  0  0  0
   48.3245    8.5771   20.3584 H   0  0  0  0  0  0  0  0  0  0  0  0
   49.2069    8.5709   18.8332 H   0  0  0  0  0  0  0  0  0  0  0  0
   49.6720    4.8967   22.0038 H   0  0  0  0  0  0  0  0  0  0  0  0
   51.4071    4.6393   22.0897 H   0  0  0  0  0  0  0  0  0  0  0  0
   52.3707    6.2532   16.6617 H   0  0  0  0  0  0  0  0  0  0  0  0
   53.1433    4.3874   18.3231 H   0  0  0  0  0  0  0  0  0  0  0  0
   50.4447    6.4564   23.5731 H   0  0  0  0  0  0  0  0  0  0  0  0
   51.9016    6.8418   22.6730 H   0  0  0  0  0  0  0  0  0  0  0  0
   46.6140    7.2321   18.7095 H   0  0  0  0  0  0  0  0  0  0  0  0
   45.9928    4.9648   17.9624 H   0  0  0  0  0  0  0  0  0  0  0  0
   46.6968    2.8268   17.6872 H   0  0  0  0  0  0  0  0  0  0  0  0
   50.8324    3.3982   17.3562 H   0  0  0  0  0  0  0  0  0  0  0  0
   51.4043    9.2995   22.7746 H   0  0  0  0  0  0  0  0  0  0  0  0
   49.7554    9.8248   22.3641 H   0  0  0  0  0  0  0  0  0  0  0  0
   50.0231    8.8416   23.7958 H   0  0  0  0  0  0  0  0  0  0  0  0
   50.5698    7.4448   22.4524 H   0  0  0  0  0  0  0  0  0  0  0  0
   47.9094    8.0143   20.6332 H   0  0  0  0  0  0  0  0  0  0  0  0
   52.6942    6.1070   22.1639 H   0  0  0  0  0  0  0  0  0  0  0  0
   50.6243    4.7854   23.0289 H   0  0  0  0  0  0  0  0  0  0  0  0
   53.2046    5.3735   19.6889 H   0  0  0  0  0  0  0  0  0  0  0  0
   52.3349    4.3102   20.7923 H   0  0  0  0  0  0  0  0  0  0  0  0
   49.9121    8.6018   18.9633 H   0  0  0  0  0  0  0  0  0  0  0  0
   50.1820    9.1359   20.6170 H   0  0  0  0  0  0  0  0  0  0  0  0
   48.2320    4.4045   22.9662 H   0  0  0  0  0  0  0  0  0  0  0  0
   47.3133    6.8326   22.4510 H   0  0  0  0  0  0  0  0  0  0  0  0
   52.2912    9.2769   19.4410 H   0  0  0  0  0  0  0  0  0  0  0  0
   52.1211    7.6969   18.7557 H   0  0  0  0  0  0  0  0  0  0  0  0
   51.9122    3.5228   18.0662 H   0  0  0  0  0  0  0  0  0  0  0  0
   49.8977    3.2587   16.7041 H   0  0  0  0  0  0  0  0  0  0  0  0
   52.0657    9.0759   22.2611 H   0  0  0  0  0  0  0  0  0  0  0  0
   53.5750    9.4731   21.4244 H   0  0  0  0  0  0  0  0  0  0  0  0
   53.5653    8.1971   22.6257 H   0  0  0  0  0  0  0  0  0  0  0  0
   46.6780    5.2723   20.2942 H   0  0  0  0  0  0  0  0  0  0  0  0
   48.1518    3.9601   15.2402 H   0  0  0  0  0  0  0  0  0  0  0  0
   46.4379    3.7783   15.6350 H   0  0  0  0  0  0  0  0  0  0  0  0
   47.6038    2.7105   16.4254 H   0  0  0  0  0  0  0  0  0  0  0  0
  2  1  1  0
  3  1  2  0
  4  1  1  0
  5  3  1  0
  6  7  1  0
  7  4  2  0
  8  2  2  0
  9 12  2  0
 10  2  1  0
 11 14  2  0
 12 13  1  0
 13 10  1  0
 14 15  1  0
 15 13  2  0
 16 21  2  0
 17  5  1  0
 18  6  1  0
 19  9  1  0
 20 11  1  0
 21  4  1  0
 22 17  1  0
 23 19  1  0
 24 18  1  0
 25 20  1  0
 16  8  1  0
  6  5  2  0
 11  9  1  0
 27 26  1  0
 28 26  1  0
 29 27  2  0
 30 26  1  0
 30 31  1  0
 32 28  1  0
 33 27  1  0
 28 34  1  0
 32 35  1  0
 36 41  1  0
 26 37  1  6
 38 39  1  0
 39 30  1  0
 40 29  1  0
 41 37  1  0
 42 33  2  0
 43 42  1  0
 44 40  1  0
 39 45  1  0
 46 36  1  0
 29 31  1  0
 32 36  1  0
 38 34  2  0
 35 33  1  0
 43 40  2  0
 48 47  1  0
 49 47  1  0
 50 48  2  0
 51 47  1  0
 52 51  1  0
 53 49  1  0
 54 62  1  0
 55 48  1  0
 49 56  1  0
 53 57  1  0
 47 58  1  1
 59 60  1  0
 60 51  1  0
 61 50  1  0
 62 58  1  0
 63 55  2  0
 64 63  1  0
 65 54  1  0
 60 66  1  0
 67 61  1  0
 68 67  1  0
 52 50  1  0
 53 54  1  0
 59 56  2  0
 57 55  1  0
 64 61  2  0
  3 69  1  0
  7 70  1  0
 10 71  1  0
 10 72  1  0
 12 73  1  0
 14 74  1  0
 15 75  1  0
 16 76  1  0
 21 77  1  0
 22 78  1  0
 22 79  1  0
 22 80  1  0
 23 81  1  0
 23 82  1  0
 23 83  1  0
 24 84  1  0
 24 85  1  0
 24 86  1  0
 25 87  1  0
 25 88  1  0
 25 89  1  0
 28 90  1  6
 30 91  1  6
 32 92  1  1
 34 93  1  0
 35 94  1  0
 35 95  1  0
 37 96  1  0
 37 97  1  0
 38 98  1  0
 39 99  1  6
 41100  1  0
 41101  1  0
 42102  1  0
 43103  1  0
 44104  1  0
 45105  1  0
 46106  1  0
 46107  1  0
 46108  1  0
 49109  1  6
 51110  1  1
 53111  1  6
 56112  1  0
 57113  1  0
 57114  1  0
 58115  1  0
 58116  1  0
 59117  1  0
 60118  1  6
 62119  1  0
 62120  1  0
 63121  1  0
 64122  1  0
 65123  1  0
 65124  1  0
 65125  1  0
 66126  1  0
 68127  1  0
 68128  1  0
 68129  1  0
M  END
> <Uni-Dock RESULT> 
ENERGY=   -6.614  LOWER_BOUND=    3.583  UPPER_BOUND=    5.871
INTER + INTRA:          -6.614
INTER:                  -6.614
INTRA:                   0.000
UNBOUND:                 0.000

$$$$

     RDKit          3D

129139  0  0  0  0  0  0  0  0999 V2000
   42.7307   12.2568    8.9979 C   0  0  0  0  0  0  0  0  0  0  0  0
   43.2257   12.5282    7.6965 C   0  0  0  0  0  0  0  0  0  0  0  0
   43.4112   11.5099    9.9918 C   0  0  0  0  0  0  0  0  0  0  0  0
   41.4565   12.7718    9.3189 C   0  0  0  0  0  0  0  0  0  0  0  0
   42.8512   11.2764   11.2544 C   0  0  0  0  0  0  0  0  0  0  0  0
   41.5859   11.8036   11.5583 C   0  0  0  0  0  0  0  0  0  0  0  0
   40.9005   12.5435   10.5903 C   0  0  0  0  0  0  0  0  0  0  0  0
   42.5281   13.2452    6.7711 N   0  0  0  0  0  0  0  0  0  0  0  0
   47.8351   13.2371    8.8864 C   0  0  0  0  0  0  0  0  0  0  0  0
   44.5901   12.0594    7.2282 C   0  0  0  0  0  0  0  0  0  0  0  0
   47.8999   14.5769    8.4594 C   0  0  0  0  0  0  0  0  0  0  0  0
   46.7699   12.4221    8.4791 C   0  0  0  0  0  0  0  0  0  0  0  0
   45.7388   12.9367    7.6792 C   0  0  0  0  0  0  0  0  0  0  0  0
   46.8751   15.0883    7.6581 C   0  0  0  0  0  0  0  0  0  0  0  0
   45.8053   14.2756    7.2740 C   0  0  0  0  0  0  0  0  0  0  0  0
   41.3182   13.7153    7.1232 C   0  0  0  0  0  0  0  0  0  0  0  0
   43.4596   10.5572   12.2530 O   0  0  0  0  0  0  0  0  0  0  0  0
   41.1059   11.5340   12.8159 O   0  0  0  0  0  0  0  0  0  0  0  0
   48.8794   12.7862    9.6572 O   0  0  0  0  0  0  0  0  0  0  0  0
   48.9856   15.2978    8.8886 O   0  0  0  0  0  0  0  0  0  0  0  0
   40.7499   13.5097    8.3646 C   0  0  0  0  0  0  0  0  0  0  0  0
   44.6946    9.9220   11.9587 C   0  0  0  0  0  0  0  0  0  0  0  0
   48.5775   11.7330   10.5624 C   0  0  0  0  0  0  0  0  0  0  0  0
   39.8490   12.0864   13.1788 C   0  0  0  0  0  0  0  0  0  0  0  0
   49.1433   16.6119    8.3732 C   0  0  0  0  0  0  0  0  0  0  0  0
   44.7753   12.0427   10.0233 C   0  0  2  0  0  0  0  0  0  0  0  0
   45.3060   12.9772    8.9766 C   0  0  0  0  0  0  0  0  0  0  0  0
   43.8141   12.8181   10.9316 C   0  0  2  0  0  0  0  0  0  0  0  0
   46.6211   12.6832    8.6866 C   0  0  0  0  0  0  0  0  0  0  0  0
   46.1444   11.6213   10.5992 C   0  0  1  0  0  0  0  0  0  0  0  0
   47.1308   11.7102    9.5103 O   0  0  0  0  0  0  0  0  0  0  0  0
   42.7164   13.4177    9.9834 C   0  0  1  0  0  0  0  0  0  0  0  0
   44.6452   14.0587    8.4180 C   0  0  0  0  0  0  0  0  0  0  0  0
   44.5210   13.8214   11.8090 C   0  0  0  0  0  0  0  0  0  0  0  0
   43.3090   14.4640    8.9845 C   0  0  0  0  0  0  0  0  0  0  0  0
   42.0390   12.3767    9.1617 N   0  0  0  0  0  0  0  0  0  0  0  0
   44.0297   10.8755    9.3285 C   0  0  0  0  0  0  0  0  0  0  0  0
   45.7927   13.6458   12.1998 C   0  0  0  0  0  0  0  0  0  0  0  0
   46.6256   12.4517   11.8292 C   0  0  2  0  0  0  0  0  0  0  0  0
   47.3031   13.3917    7.7221 C   0  0  0  0  0  0  0  0  0  0  0  0
   42.5001   11.0116    9.4091 C   0  0  0  0  0  0  0  0  0  0  0  0
   45.3250   14.7887    7.4393 C   0  0  0  0  0  0  0  0  0  0  0  0
   46.6433   14.4422    7.0764 C   0  0  0  0  0  0  0  0  0  0  0  0
   48.5999   13.0857    7.4459 O   0  0  0  0  0  0  0  0  0  0  0  0
   47.9752   12.8953   11.6928 O   0  0  0  0  0  0  0  0  0  0  0  0
   40.5839   12.4717    9.2544 C   0  0  0  0  0  0  0  0  0  0  0  0
   43.6069   13.0800    9.2942 C   0  0  2  0  0  0  0  0  0  0  0  0
   45.0622   13.0794    9.6329 C   0  0  0  0  0  0  0  0  0  0  0  0
   43.0481   11.6672    9.5014 C   0  0  2  0  0  0  0  0  0  0  0  0
   45.7689   13.8882    8.7694 C   0  0  0  0  0  0  0  0  0  0  0  0
   43.7372   13.5930    7.8459 C   0  0  1  0  0  0  0  0  0  0  0  0
   44.9728   14.3920    7.7677 O   0  0  0  0  0  0  0  0  0  0  0  0
   43.3195   11.3022   10.9974 C   0  0  2  0  0  0  0  0  0  0  0  0
   42.5911   12.2134   11.9247 N   0  0  0  0  0  0  0  0  0  0  0  0
   45.6718   12.3130   10.6078 C   0  0  0  0  0  0  0  0  0  0  0  0
   43.5931   10.6836    8.4931 C   0  0  0  0  0  0  0  0  0  0  0  0
   44.8514   11.2862   11.3451 C   0  0  0  0  0  0  0  0  0  0  0  0
   42.8521   14.0652   10.2104 C   0  0  0  0  0  0  0  0  0  0  0  0
   43.9198   11.0690    7.2502 C   0  0  0  0  0  0  0  0  0  0  0  0
   43.7538   12.4785    6.7566 C   0  0  2  0  0  0  0  0  0  0  0  0
   47.1330   14.0713    8.9083 C   0  0  0  0  0  0  0  0  0  0  0  0
   42.8817   13.6360   11.6865 C   0  0  0  0  0  0  0  0  0  0  0  0
   47.0466   12.4758   10.7720 C   0  0  0  0  0  0  0  0  0  0  0  0
   47.7680   13.3638    9.9410 C   0  0  0  0  0  0  0  0  0  0  0  0
   41.1516   11.9572   11.9538 C   0  0  0  0  0  0  0  0  0  0  0  0
   44.7510   12.7151    5.7646 O   0  0  0  0  0  0  0  0  0  0  0  0
   47.7351   14.9004    8.0080 O   0  0  0  0  0  0  0  0  0  0  0  0
   49.1351   15.0977    8.1518 C   0  0  0  0  0  0  0  0  0  0  0  0
   44.3912   11.1122    9.7631 H   0  0  0  0  0  0  0  0  0  0  0  0
   39.9193   12.9555   10.8053 H   0  0  0  0  0  0  0  0  0  0  0  0
   44.7464   11.0166    7.5288 H   0  0  0  0  0  0  0  0  0  0  0  0
   44.6016   12.0347    6.1297 H   0  0  0  0  0  0  0  0  0  0  0  0
   46.7440   11.3747    8.7598 H   0  0  0  0  0  0  0  0  0  0  0  0
   46.8749   16.1178    7.3153 H   0  0  0  0  0  0  0  0  0  0  0  0
   45.0195   14.6954    6.6460 H   0  0  0  0  0  0  0  0  0  0  0  0
   40.7988   14.2821    6.3560 H   0  0  0  0  0  0  0  0  0  0  0  0
   39.7686   13.9221    8.5760 H   0  0  0  0  0  0  0  0  0  0  0  0
   44.5876    9.2088   11.1342 H   0  0  0  0  0  0  0  0  0  0  0  0
   45.0023    9.3597   12.8459 H   0  0  0  0  0  0  0  0  0  0  0  0
   45.4756   10.6592   11.7461 H   0  0  0  0  0  0  0  0  0  0  0  0
   49.3997   11.6649   11.2816 H   0  0  0  0  0  0  0  0  0  0  0  0
   47.6586   11.9326   11.1244 H   0  0  0  0  0  0  0  0  0  0  0  0
   48.5166   10.7747   10.0369 H   0  0  0  0  0  0  0  0  0  0  0  0
   39.6388   11.7904   14.2111 H   0  0  0  0  0  0  0  0  0  0  0  0
   39.8733   13.1809   13.1453 H   0  0  0  0  0  0  0  0  0  0  0  0
   39.0472   11.6871   12.5493 H   0  0  0  0  0  0  0  0  0  0  0  0
   48.3334   17.2672    8.7107 H   0  0  0  0  0  0  0  0  0  0  0  0
   50.0813   17.0153    8.7672 H   0  0  0  0  0  0  0  0  0  0  0  0
   49.2182   16.6038    7.2804 H   0  0  0  0  0  0  0  0  0  0  0  0
   43.3241   12.1283   11.6339 H   0  0  0  0  0  0  0  0  0  0  0  0
   46.1273   10.5682   10.9060 H   0  0  0  0  0  0  0  0  0  0  0  0
   41.9774   13.9362   10.6099 H   0  0  0  0  0  0  0  0  0  0  0  0
   43.9659   14.6871   12.1612 H   0  0  0  0  0  0  0  0  0  0  0  0
   42.6024   14.6638    8.1693 H   0  0  0  0  0  0  0  0  0  0  0  0
   43.4493   15.4109    9.5219 H   0  0  0  0  0  0  0  0  0  0  0  0
   44.3271   10.7801    8.2755 H   0  0  0  0  0  0  0  0  0  0  0  0
   44.2903    9.9234    9.8080 H   0  0  0  0  0  0  0  0  0  0  0  0
   46.2570   14.3749   12.8597 H   0  0  0  0  0  0  0  0  0  0  0  0
   46.6139   11.7890   12.7037 H   0  0  0  0  0  0  0  0  0  0  0  0
   42.0613   10.3299    8.6701 H   0  0  0  0  0  0  0  0  0  0  0  0
   42.1567   10.6603   10.3914 H   0  0  0  0  0  0  0  0  0  0  0  0
   44.8494   15.6463    6.9695 H   0  0  0  0  0  0  0  0  0  0  0  0
   47.1478   15.0326    6.3172 H   0  0  0  0  0  0  0  0  0  0  0  0
   48.9138   13.6747    6.7411 H   0  0  0  0  0  0  0  0  0  0  0  0
   48.2281   12.7268   10.7624 H   0  0  0  0  0  0  0  0  0  0  0  0
   40.2252   12.2577   10.2680 H   0  0  0  0  0  0  0  0  0  0  0  0
   40.2425   13.4737    8.9702 H   0  0  0  0  0  0  0  0  0  0  0  0
   40.1040   11.7701    8.5628 H   0  0  0  0  0  0  0  0  0  0  0  0
   41.9628   11.6723    9.3310 H   0  0  0  0  0  0  0  0  0  0  0  0
   42.9183   14.2829    7.6040 H   0  0  0  0  0  0  0  0  0  0  0  0
   42.9592   10.2829   11.1919 H   0  0  0  0  0  0  0  0  0  0  0  0
   43.6832    9.6377    8.7755 H   0  0  0  0  0  0  0  0  0  0  0  0
   44.9977   11.3983   12.4268 H   0  0  0  0  0  0  0  0  0  0  0  0
   45.2450   10.2977   11.0733 H   0  0  0  0  0  0  0  0  0  0  0  0
   43.2699   15.0774   10.1317 H   0  0  0  0  0  0  0  0  0  0  0  0
   41.8081   14.1332    9.8773 H   0  0  0  0  0  0  0  0  0  0  0  0
   44.2753   10.3349    6.5316 H   0  0  0  0  0  0  0  0  0  0  0  0
   42.7905   12.5055    6.2326 H   0  0  0  0  0  0  0  0  0  0  0  0
   42.1943   14.2699   12.2613 H   0  0  0  0  0  0  0  0  0  0  0  0
   43.8690   13.8615   12.1075 H   0  0  0  0  0  0  0  0  0  0  0  0
   47.5795   11.9023   11.5272 H   0  0  0  0  0  0  0  0  0  0  0  0
   48.8373   13.4480   10.1088 H   0  0  0  0  0  0  0  0  0  0  0  0
   40.6446   12.2409   11.0263 H   0  0  0  0  0  0  0  0  0  0  0  0
   40.6862   12.5144   12.7753 H   0  0  0  0  0  0  0  0  0  0  0  0
   40.9479   10.8987   12.1489 H   0  0  0  0  0  0  0  0  0  0  0  0
   45.4027   13.3194    6.1724 H   0  0  0  0  0  0  0  0  0  0  0  0
   49.3739   15.5500    9.1204 H   0  0  0  0  0  0  0  0  0  0  0  0
   49.4569   15.7941    7.3711 H   0  0  0  0  0  0  0  0  0  0  0  0
   49.6823   14.1603    8.0068 H   0  0  0  0  0  0  0  0  0  0  0  0
  2  1  1  0
  3  1  2  0
  4  1  1  0
  5  3  1  0
  6  7  1  0
  7  4  2  0
  8  2  2  0
  9 12  2  0
 10  2  1  0
 11 14  2  0
 12 13  1  0
 13 10  1  0
 14 15  1  0
 15 13  2  0
 16 21  2  0
 17  5  1  0
 18  6  1  0
 19  9  1  0
 20 11  1  0
 21  4  1  0
 22 17  1  0
 23 19  1  0
 24 18  1  0
 25 20  1  0
 16  8  1  0
  6  5  2  0
 11  9  1  0
 27 26  1  0
 28 26  1  0
 29 27  2  0
 30 26  1  0
 30 31  1  0
 32 28  1  0
 33 27  1  0
 28 34  1  0
 32 35  1  0
 36 41  1  0
 26 37  1  6
 38 39  1  0
 39 30  1  0
 40 29  1  0
 41 37  1  0
 42 33  2  0
 43 42  1  0
 44 40  1  0
 39 45  1  0
 46 36  1  0
 29 31  1  0
 32 36  1  0
 38 34  2  0
 35 33  1  0
 43 40  2  0
 48 47  1  0
 49 47  1  0
 50 48  2  0
 51 47  1  0
 52 51  1  0
 53 49  1  0
 54 62  1  0
 55 48  1  0
 49 56  1  0
 53 57  1  0
 47 58  1  1
 59 60  1  0
 60 51  1  0
 61 50  1  0
 62 58  1  0
 63 55  2  0
 64 63  1  0
 65 54  1  0
 60 66  1  0
 67 61  1  0
 68 67  1  0
 52 50  1  0
 53 54  1  0
 59 56  2  0
 57 55  1  0
 64 61  2  0
  3 69  1  0
  7 70  1  0
 10 71  1  0
 10 72  1  0
 12 73  1  0
 14 74  1  0
 15 75  1  0
 16 76  1  0
 21 77  1  0
 22 78  1  0
 22 79  1  0
 22 80  1  0
 23 81  1  0
 23 82  1  0
 23 83  1  0
 24 84  1  0
 24 85  1  0
 24 86  1  0
 25 87  1  0
 25 88  1  0
 25 89  1  0
 28 90  1  6
 30 91  1  6
 32 92  1  1
 34 93  1  0
 35 94  1  0
 35 95  1  0
 37 96  1  0
 37 97  1  0
 38 98  1  0
 39 99  1  6
 41100  1  0
 41101  1  0
 42102  1  0
 43103  1  0
 44104  1  0
 45105  1  0
 46106  1  0
 46107  1  0
 46108  1  0
 49109  1  6
 51110  1  1
 53111  1  6
 56112  1  0
 57113  1  0
 57114  1  0
 58115  1  0
 58116  1  0
 59117  1  0
 60118  1  6
 62119  1  0
 62120  1  0
 63121  1  0
 64122  1  0
 65123  1  0
 65124  1  0
 65125  1  0
 66126  1  0
 68127  1  0
 68128  1  0
 68129  1  0
M  END
> <Uni-Dock RESULT> 
ENERGY=   -6.546  LOWER_BOUND=    8.732  UPPER_BOUND=   11.722
INTER + INTRA:          -6.546
INTER:                  -6.546
INTRA:                   0.000
UNBOUND:                 0.000

$$$$

     RDKit          3D

129139  0  0  0  0  0  0  0  0999 V2000
   49.8489    6.0762   21.4714 C   0  0  0  0  0  0  0  0  0  0  0  0
   48.7836    6.6480   22.2135 C   0  0  0  0  0  0  0  0  0  0  0  0
   49.8763    5.9286   20.0622 C   0  0  0  0  0  0  0  0  0  0  0  0
   50.9647    5.6162   22.2031 C   0  0  0  0  0  0  0  0  0  0  0  0
   50.9639    5.3438   19.4008 C   0  0  0  0  0  0  0  0  0  0  0  0
   52.0686    4.8994   20.1448 C   0  0  0  0  0  0  0  0  0  0  0  0
   52.0591    5.0377   21.5359 C   0  0  0  0  0  0  0  0  0  0  0  0
   48.8005    6.7595   23.5715 N   0  0  0  0  0  0  0  0  0  0  0  0
   47.6616   10.1723   19.1336 C   0  0  0  0  0  0  0  0  0  0  0  0
   47.5374    7.2067   21.5537 C   0  0  0  0  0  0  0  0  0  0  0  0
   47.9491   11.2376   20.0076 C   0  0  0  0  0  0  0  0  0  0  0  0
   47.5187    8.8717   19.6366 C   0  0  0  0  0  0  0  0  0  0  0  0
   47.6992    8.6076   21.0024 C   0  0  0  0  0  0  0  0  0  0  0  0
   48.1238   10.9754   21.3694 C   0  0  0  0  0  0  0  0  0  0  0  0
   48.0012    9.6727   21.8601 C   0  0  0  0  0  0  0  0  0  0  0  0
   49.8853    6.3070   24.2250 C   0  0  0  0  0  0  0  0  0  0  0  0
   51.0441    5.1696   18.0414 O   0  0  0  0  0  0  0  0  0  0  0  0
   53.0953    4.3403   19.4253 O   0  0  0  0  0  0  0  0  0  0  0  0
   47.4834   10.4940   17.8097 O   0  0  0  0  0  0  0  0  0  0  0  0
   48.0533   12.4801   19.4347 O   0  0  0  0  0  0  0  0  0  0  0  0
   50.9748    5.7385   23.5957 C   0  0  0  0  0  0  0  0  0  0  0  0
   49.9109    5.5123   17.2580 C   0  0  0  0  0  0  0  0  0  0  0  0
   47.7966    9.4731   16.8719 C   0  0  0  0  0  0  0  0  0  0  0  0
   54.2504    3.9186   20.1357 C   0  0  0  0  0  0  0  0  0  0  0  0
   48.2179   13.5900   20.3054 C   0  0  0  0  0  0  0  0  0  0  0  0
   49.4636    7.2252   19.5198 C   0  0  2  0  0  0  0  0  0  0  0  0
   48.8768    8.3116   20.3719 C   0  0  0  0  0  0  0  0  0  0  0  0
   50.9703    7.1480   19.7918 C   0  0  2  0  0  0  0  0  0  0  0  0
   47.8668    8.9638   19.6976 C   0  0  0  0  0  0  0  0  0  0  0  0
   48.9945    7.7889   18.1611 C   0  0  1  0  0  0  0  0  0  0  0  0
   47.7504    8.5394   18.3971 O   0  0  0  0  0  0  0  0  0  0  0  0
   51.1165    6.9090   21.3361 C   0  0  1  0  0  0  0  0  0  0  0  0
   49.3124    8.7100   21.6248 C   0  0  0  0  0  0  0  0  0  0  0  0
   51.7227    8.3397   19.2533 C   0  0  0  0  0  0  0  0  0  0  0  0
   50.5860    8.1188   22.1719 C   0  0  0  0  0  0  0  0  0  0  0  0
   50.3720    5.7065   21.8024 N   0  0  0  0  0  0  0  0  0  0  0  0
   48.7859    5.8788   19.8789 C   0  0  0  0  0  0  0  0  0  0  0  0
   51.2840    9.0305   18.1898 C   0  0  0  0  0  0  0  0  0  0  0  0
   50.0350    8.6905   17.4274 C   0  0  2  0  0  0  0  0  0  0  0  0
   47.1574    9.9768   20.3041 C   0  0  0  0  0  0  0  0  0  0  0  0
   49.6778    4.9735   20.7450 C   0  0  0  0  0  0  0  0  0  0  0  0
   48.6039    9.7381   22.2523 C   0  0  0  0  0  0  0  0  0  0  0  0
   47.5147   10.3553   21.6022 C   0  0  0  0  0  0  0  0  0  0  0  0
   46.1610   10.6076   19.6252 O   0  0  0  0  0  0  0  0  0  0  0  0
   49.4658    9.9159   16.9677 O   0  0  0  0  0  0  0  0  0  0  0  0
   51.2157    4.8189   22.5993 C   0  0  0  0  0  0  0  0  0  0  0  0
   50.0101    7.2622   21.1547 C   0  0  2  0  0  0  0  0  0  0  0  0
   49.5235    8.2071   20.1044 C   0  0  0  0  0  0  0  0  0  0  0  0
   49.7773    5.8244   20.6756 C   0  0  2  0  0  0  0  0  0  0  0  0
   48.9220    9.3086   20.6738 C   0  0  0  0  0  0  0  0  0  0  0  0
   49.1353    7.7811   22.3137 C   0  0  1  0  0  0  0  0  0  0  0  0
   48.8328    9.1973   22.0415 O   0  0  0  0  0  0  0  0  0  0  0  0
   50.5541    5.6793   19.3265 C   0  0  2  0  0  0  0  0  0  0  0  0
   52.0214    5.8568   19.5171 N   0  0  0  0  0  0  0  0  0  0  0  0
   49.5636    7.9989   18.7390 C   0  0  0  0  0  0  0  0  0  0  0  0
   48.3094    5.4745   20.6103 C   0  0  0  0  0  0  0  0  0  0  0  0
   50.0284    6.6627   18.2199 C   0  0  0  0  0  0  0  0  0  0  0  0
   51.5174    7.4784   21.4019 C   0  0  0  0  0  0  0  0  0  0  0  0
   47.4249    6.0197   21.4591 C   0  0  0  0  0  0  0  0  0  0  0  0
   47.8130    6.9880   22.5404 C   0  0  2  0  0  0  0  0  0  0  0  0
   48.4227   10.3384   19.8967 C   0  0  0  0  0  0  0  0  0  0  0  0
   52.3713    7.1268   20.1726 C   0  0  0  0  0  0  0  0  0  0  0  0
   49.0678    9.0197   17.9292 C   0  0  0  0  0  0  0  0  0  0  0  0
   48.5197   10.1893   18.5043 C   0  0  0  0  0  0  0  0  0  0  0  0
   52.6461    4.7169   20.1873 C   0  0  0  0  0  0  0  0  0  0  0  0
   46.7032    7.8537   22.7717 O   0  0  0  0  0  0  0  0  0  0  0  0
   47.8567   11.3876   20.5595 O   0  0  0  0  0  0  0  0  0  0  0  0
   47.3496   12.4516   19.7654 C   0  0  0  0  0  0  0  0  0  0  0  0
   49.0306    6.2805   19.4862 H   0  0  0  0  0  0  0  0  0  0  0  0
   52.9022    4.6962   22.1285 H   0  0  0  0  0  0  0  0  0  0  0  0
   47.1865    6.5144   20.7793 H   0  0  0  0  0  0  0  0  0  0  0  0
   46.7233    7.2312   22.2913 H   0  0  0  0  0  0  0  0  0  0  0  0
   47.2430    8.0568   18.9760 H   0  0  0  0  0  0  0  0  0  0  0  0
   48.3593   11.7615   22.0791 H   0  0  0  0  0  0  0  0  0  0  0  0
   48.1384    9.4928   22.9263 H   0  0  0  0  0  0  0  0  0  0  0  0
   49.8566    6.4175   25.3052 H   0  0  0  0  0  0  0  0  0  0  0  0
   51.8156    5.3973   24.1911 H   0  0  0  0  0  0  0  0  0  0  0  0
   49.0315    4.9317   17.5568 H   0  0  0  0  0  0  0  0  0  0  0  0
   50.1352    5.2624   16.2164 H   0  0  0  0  0  0  0  0  0  0  0  0
   49.7104    6.5876   17.3051 H   0  0  0  0  0  0  0  0  0  0  0  0
   47.8726    9.9387   15.8843 H   0  0  0  0  0  0  0  0  0  0  0  0
   48.7602    9.0013   17.0932 H   0  0  0  0  0  0  0  0  0  0  0  0
   46.9956    8.7284   16.8264 H   0  0  0  0  0  0  0  0  0  0  0  0
   54.9657    3.5241   19.4075 H   0  0  0  0  0  0  0  0  0  0  0  0
   54.7285    4.7598   20.6489 H   0  0  0  0  0  0  0  0  0  0  0  0
   54.0094    3.1114   20.8349 H   0  0  0  0  0  0  0  0  0  0  0  0
   49.1781   13.5404   20.8298 H   0  0  0  0  0  0  0  0  0  0  0  0
   48.2215   14.4974   19.6936 H   0  0  0  0  0  0  0  0  0  0  0  0
   47.3839   13.6686   21.0112 H   0  0  0  0  0  0  0  0  0  0  0  0
   51.4018    6.2838   19.2664 H   0  0  0  0  0  0  0  0  0  0  0  0
   48.7306    6.9746   17.4751 H   0  0  0  0  0  0  0  0  0  0  0  0
   52.1864    6.7935   21.5588 H   0  0  0  0  0  0  0  0  0  0  0  0
   52.6644    8.6155   19.7212 H   0  0  0  0  0  0  0  0  0  0  0  0
   50.4440    7.8314   23.2212 H   0  0  0  0  0  0  0  0  0  0  0  0
   51.3504    8.9066   22.1595 H   0  0  0  0  0  0  0  0  0  0  0  0
   47.8278    6.0365   20.3923 H   0  0  0  0  0  0  0  0  0  0  0  0
   48.5550    5.3175   18.9647 H   0  0  0  0  0  0  0  0  0  0  0  0
   51.8719    9.8632   17.8109 H   0  0  0  0  0  0  0  0  0  0  0  0
   50.3636    8.1554   16.5275 H   0  0  0  0  0  0  0  0  0  0  0  0
   49.0419    4.1957   21.1857 H   0  0  0  0  0  0  0  0  0  0  0  0
   50.3977    4.4514   20.1006 H   0  0  0  0  0  0  0  0  0  0  0  0
   48.9056   10.0867   23.2370 H   0  0  0  0  0  0  0  0  0  0  0  0
   46.9880   11.1560   22.1128 H   0  0  0  0  0  0  0  0  0  0  0  0
   45.7688   11.2802   20.2047 H   0  0  0  0  0  0  0  0  0  0  0  0
   48.5846    9.9854   17.3880 H   0  0  0  0  0  0  0  0  0  0  0  0
   52.0306    4.3892   22.0051 H   0  0  0  0  0  0  0  0  0  0  0  0
   51.6524    5.3583   23.4476 H   0  0  0  0  0  0  0  0  0  0  0  0
   50.6256    3.9976   23.0213 H   0  0  0  0  0  0  0  0  0  0  0  0
   50.2019    5.1205   21.4045 H   0  0  0  0  0  0  0  0  0  0  0  0
   49.6960    7.7704   23.2573 H   0  0  0  0  0  0  0  0  0  0  0  0
   50.3973    4.6687   18.9258 H   0  0  0  0  0  0  0  0  0  0  0  0
   47.9772    4.7369   19.8841 H   0  0  0  0  0  0  0  0  0  0  0  0
   50.7920    6.8082   17.4455 H   0  0  0  0  0  0  0  0  0  0  0  0
   49.1685    6.1857   17.7309 H   0  0  0  0  0  0  0  0  0  0  0  0
   51.7260    8.5178   21.6874 H   0  0  0  0  0  0  0  0  0  0  0  0
   51.8328    6.8544   22.2484 H   0  0  0  0  0  0  0  0  0  0  0  0
   46.3798    5.7237   21.4157 H   0  0  0  0  0  0  0  0  0  0  0  0
   47.9301    6.3923   23.4540 H   0  0  0  0  0  0  0  0  0  0  0  0
   53.4319    7.1338   20.4550 H   0  0  0  0  0  0  0  0  0  0  0  0
   52.2861    7.9318   19.4325 H   0  0  0  0  0  0  0  0  0  0  0  0
   49.0779    8.9134   16.8466 H   0  0  0  0  0  0  0  0  0  0  0  0
   48.1432   10.9500   17.8273 H   0  0  0  0  0  0  0  0  0  0  0  0
   52.3618    4.6275   21.2405 H   0  0  0  0  0  0  0  0  0  0  0  0
   53.7379    4.8041   20.1401 H   0  0  0  0  0  0  0  0  0  0  0  0
   52.3924    3.7796   19.6803 H   0  0  0  0  0  0  0  0  0  0  0  0
   46.9552    8.7238   22.4036 H   0  0  0  0  0  0  0  0  0  0  0  0
   48.1446   12.9176   19.1734 H   0  0  0  0  0  0  0  0  0  0  0  0
   46.9489   13.2127   20.4421 H   0  0  0  0  0  0  0  0  0  0  0  0
   46.5285   12.1098   19.1264 H   0  0  0  0  0  0  0  0  0  0  0  0
  2  1  1  0
  3  1  2  0
  4  1  1  0
  5  3  1  0
  6  7  1  0
  7  4  2  0
  8  2  2  0
  9 12  2  0
 10  2  1  0
 11 14  2  0
 12 13  1  0
 13 10  1  0
 14 15  1  0
 15 13  2  0
 16 21  2  0
 17  5  1  0
 18  6  1  0
 19  9  1  0
 20 11  1  0
 21  4  1  0
 22 17  1  0
 23 19  1  0
 24 18  1  0
 25 20  1  0
 16  8  1  0
  6  5  2  0
 11  9  1  0
 27 26  1  0
 28 26  1  0
 29 27  2  0
 30 26  1  0
 30 31  1  0
 32 28  1  0
 33 27  1  0
 28 34  1  0
 32 35  1  0
 36 41  1  0
 26 37  1  6
 38 39  1  0
 39 30  1  0
 40 29  1  0
 41 37  1  0
 42 33  2  0
 43 42  1  0
 44 40  1  0
 39 45  1  0
 46 36  1  0
 29 31  1  0
 32 36  1  0
 38 34  2  0
 35 33  1  0
 43 40  2  0
 48 47  1  0
 49 47  1  0
 50 48  2  0
 51 47  1  0
 52 51  1  0
 53 49  1  0
 54 62  1  0
 55 48  1  0
 49 56  1  0
 53 57  1  0
 47 58  1  1
 59 60  1  0
 60 51  1  0
 61 50  1  0
 62 58  1  0
 63 55  2  0
 64 63  1  0
 65 54  1  0
 60 66  1  0
 67 61  1  0
 68 67  1  0
 52 50  1  0
 53 54  1  0
 59 56  2  0
 57 55  1  0
 64 61  2  0
  3 69  1  0
  7 70  1  0
 10 71  1  0
 10 72  1  0
 12 73  1  0
 14 74  1  0
 15 75  1  0
 16 76  1  0
 21 77  1  0
 22 78  1  0
 22 79  1  0
 22 80  1  0
 23 81  1  0
 23 82  1  0
 23 83  1  0
 24 84  1  0
 24 85  1  0
 24 86  1  0
 25 87  1  0
 25 88  1  0
 25 89  1  0
 28 90  1  6
 30 91  1  6
 32 92  1  1
 34 93  1  0
 35 94  1  0
 35 95  1  0
 37 96  1  0
 37 97  1  0
 38 98  1  0
 39 99  1  6
 41100  1  0
 41101  1  0
 42102  1  0
 43103  1  0
 44104  1  0
 45105  1  0
 46106  1  0
 46107  1  0
 46108  1  0
 49109  1  6
 51110  1  1
 53111  1  6
 56112  1  0
 57113  1  0
 57114  1  0
 58115  1  0
 58116  1  0
 59117  1  0
 60118  1  6
 62119  1  0
 62120  1  0
 63121  1  0
 64122  1  0
 65123  1  0
 65124  1  0
 65125  1  0
 66126  1  0
 68127  1  0
 68128  1  0
 68129  1  0
M  END
> <Uni-Dock RESULT> 
ENERGY=   -6.152  LOWER_BOUND=    2.134  UPPER_BOUND=    4.155
INTER + INTRA:          -6.152
INTER:                  -6.152
INTRA:                   0.000
UNBOUND:                 0.000

$$$$

     RDKit          3D

129139  0  0  0  0  0  0  0  0999 V2000
   48.9468   13.6280   19.5966 C   0  0  0  0  0  0  0  0  0  0  0  0
   48.6328   13.7391   18.2176 C   0  0  0  0  0  0  0  0  0  0  0  0
   48.4410   12.6354   20.4726 C   0  0  0  0  0  0  0  0  0  0  0  0
   49.8309   14.5893   20.1317 C   0  0  0  0  0  0  0  0  0  0  0  0
   48.7919   12.5968   21.8282 C   0  0  0  0  0  0  0  0  0  0  0  0
   49.6791   13.5568   22.3408 C   0  0  0  0  0  0  0  0  0  0  0  0
   50.1885   14.5430   21.4910 C   0  0  0  0  0  0  0  0  0  0  0  0
   49.1388   14.7192   17.4173 N   0  0  0  0  0  0  0  0  0  0  0  0
   48.5713    9.0392   17.1821 C   0  0  0  0  0  0  0  0  0  0  0  0
   47.7191   12.7587   17.5073 C   0  0  0  0  0  0  0  0  0  0  0  0
   49.6291    9.0724   16.2540 C   0  0  0  0  0  0  0  0  0  0  0  0
   47.9485   10.2308   17.5782 C   0  0  0  0  0  0  0  0  0  0  0  0
   48.3933   11.4686   17.0906 C   0  0  0  0  0  0  0  0  0  0  0  0
   50.0690   10.3053   15.7640 C   0  0  0  0  0  0  0  0  0  0  0  0
   49.4573   11.4907   16.1803 C   0  0  0  0  0  0  0  0  0  0  0  0
   49.9770   15.6124   17.9725 C   0  0  0  0  0  0  0  0  0  0  0  0
   48.3303   11.6645   22.7239 O   0  0  0  0  0  0  0  0  0  0  0  0
   49.9762   13.4515   23.6769 O   0  0  0  0  0  0  0  0  0  0  0  0
   48.1714    7.7978   17.6146 O   0  0  0  0  0  0  0  0  0  0  0  0
   50.1689    7.8595   15.9069 O   0  0  0  0  0  0  0  0  0  0  0  0
   50.3481   15.5886   19.3021 C   0  0  0  0  0  0  0  0  0  0  0  0
   47.3554   10.7352   22.2750 C   0  0  0  0  0  0  0  0  0  0  0  0
   47.5934    7.7453   18.9119 C   0  0  0  0  0  0  0  0  0  0  0  0
   50.9043   14.3761   24.2249 C   0  0  0  0  0  0  0  0  0  0  0  0
   51.1510    7.8504   14.8809 C   0  0  0  0  0  0  0  0  0  0  0  0
   48.6077   11.3624   19.7674 C   0  0  2  0  0  0  0  0  0  0  0  0
   48.9745   11.2812   18.3150 C   0  0  0  0  0  0  0  0  0  0  0  0
   49.8524   11.7659   20.5661 C   0  0  2  0  0  0  0  0  0  0  0  0
   48.2921   10.2536   17.6997 C   0  0  0  0  0  0  0  0  0  0  0  0
   48.0903    9.9141   19.9036 C   0  0  1  0  0  0  0  0  0  0  0  0
   47.5641    9.5050   18.5911 O   0  0  0  0  0  0  0  0  0  0  0  0
   50.3402   13.1224   19.9453 C   0  0  1  0  0  0  0  0  0  0  0  0
   49.9275   12.0401   17.6562 C   0  0  0  0  0  0  0  0  0  0  0  0
   50.8922   10.6739   20.6183 C   0  0  0  0  0  0  0  0  0  0  0  0
   50.8101   12.9566   18.4637 C   0  0  0  0  0  0  0  0  0  0  0  0
   49.2780   14.1661   19.9438 N   0  0  0  0  0  0  0  0  0  0  0  0
   47.4901   12.4202   19.9487 C   0  0  0  0  0  0  0  0  0  0  0  0
   50.5590    9.3767   20.5366 C   0  0  0  0  0  0  0  0  0  0  0  0
   49.1469    8.8813   20.4045 C   0  0  2  0  0  0  0  0  0  0  0  0
   48.4449   10.0172   16.3514 C   0  0  0  0  0  0  0  0  0  0  0  0
   48.0096   13.7434   20.5353 C   0  0  0  0  0  0  0  0  0  0  0  0
   50.0956   11.8104   16.2881 C   0  0  0  0  0  0  0  0  0  0  0  0
   49.3399   10.8160   15.6325 C   0  0  0  0  0  0  0  0  0  0  0  0
   47.7607    9.0007   15.7593 O   0  0  0  0  0  0  0  0  0  0  0  0
   49.1790    7.7018   19.6017 O   0  0  0  0  0  0  0  0  0  0  0  0
   49.7461   15.4203   20.5293 C   0  0  0  0  0  0  0  0  0  0  0  0
   49.5849   12.6539   19.1760 C   0  0  2  0  0  0  0  0  0  0  0  0
   49.3488   11.2026   18.9103 C   0  0  0  0  0  0  0  0  0  0  0  0
   48.5051   13.1649   20.1372 C   0  0  2  0  0  0  0  0  0  0  0  0
   49.6212   10.8923   17.5954 C   0  0  0  0  0  0  0  0  0  0  0  0
   49.5286   13.1385   17.7132 C   0  0  1  0  0  0  0  0  0  0  0  0
   49.9311   12.0095   16.8561 O   0  0  0  0  0  0  0  0  0  0  0  0
   48.6154   12.2892   21.4279 C   0  0  2  0  0  0  0  0  0  0  0  0
   49.9340   12.4662   22.0992 N   0  0  0  0  0  0  0  0  0  0  0  0
   48.8359   10.2831   19.8051 C   0  0  0  0  0  0  0  0  0  0  0  0
   47.1373   13.1929   19.4973 C   0  0  0  0  0  0  0  0  0  0  0  0
   48.3500   10.7665   21.1472 C   0  0  0  0  0  0  0  0  0  0  0  0
   50.9734   12.8540   19.8177 C   0  0  0  0  0  0  0  0  0  0  0  0
   46.9874   13.4206   18.1835 C   0  0  0  0  0  0  0  0  0  0  0  0
   48.1415   13.6844   17.2583 C   0  0  2  0  0  0  0  0  0  0  0  0
   49.5063    9.5973   17.1226 C   0  0  0  0  0  0  0  0  0  0  0  0
   51.0769   12.2081   21.2090 C   0  0  0  0  0  0  0  0  0  0  0  0
   48.7087    8.9689   19.3577 C   0  0  0  0  0  0  0  0  0  0  0  0
   49.0605    8.6253   18.0319 C   0  0  0  0  0  0  0  0  0  0  0  0
   50.0575   13.7599   22.7699 C   0  0  0  0  0  0  0  0  0  0  0  0
   47.7800   13.2123   15.9619 O   0  0  0  0  0  0  0  0  0  0  0  0
   49.8098    9.3953   15.8083 O   0  0  0  0  0  0  0  0  0  0  0  0
   49.7009    8.0650   15.3203 C   0  0  0  0  0  0  0  0  0  0  0  0
   47.7658   11.8882   20.0768 H   0  0  0  0  0  0  0  0  0  0  0  0
   50.8723   15.2963   21.8700 H   0  0  0  0  0  0  0  0  0  0  0  0
   46.8352   12.5620   18.1256 H   0  0  0  0  0  0  0  0  0  0  0  0
   47.3211   13.2344   16.6003 H   0  0  0  0  0  0  0  0  0  0  0  0
   47.0975   10.2062   18.2505 H   0  0  0  0  0  0  0  0  0  0  0  0
   50.8889   10.3820   15.0575 H   0  0  0  0  0  0  0  0  0  0  0  0
   49.8151   12.4401   15.7820 H   0  0  0  0  0  0  0  0  0  0  0  0
   50.3572   16.3742   17.2980 H   0  0  0  0  0  0  0  0  0  0  0  0
   51.0311   16.3436   19.6780 H   0  0  0  0  0  0  0  0  0  0  0  0
   46.4529   11.2460   21.9223 H   0  0  0  0  0  0  0  0  0  0  0  0
   47.0710   10.1097   23.1269 H   0  0  0  0  0  0  0  0  0  0  0  0
   47.7656   10.0768   21.5025 H   0  0  0  0  0  0  0  0  0  0  0  0
   47.5776    6.6976   19.2282 H   0  0  0  0  0  0  0  0  0  0  0  0
   48.1869    8.3053   19.6428 H   0  0  0  0  0  0  0  0  0  0  0  0
   46.5585    8.1009   18.8908 H   0  0  0  0  0  0  0  0  0  0  0  0
   51.0361   14.1306   25.2832 H   0  0  0  0  0  0  0  0  0  0  0  0
   51.8824   14.2898   23.7396 H   0  0  0  0  0  0  0  0  0  0  0  0
   50.5207   15.3998   24.1671 H   0  0  0  0  0  0  0  0  0  0  0  0
   52.0564    8.3788   15.1975 H   0  0  0  0  0  0  0  0  0  0  0  0
   51.4256    6.8083   14.6902 H   0  0  0  0  0  0  0  0  0  0  0  0
   50.7548    8.2656   13.9478 H   0  0  0  0  0  0  0  0  0  0  0  0
   49.5814   11.9448   21.6167 H   0  0  0  0  0  0  0  0  0  0  0  0
   47.2409    9.8705   20.5965 H   0  0  0  0  0  0  0  0  0  0  0  0
   51.2022   13.4700   20.5316 H   0  0  0  0  0  0  0  0  0  0  0  0
   51.9327   10.9526   20.7651 H   0  0  0  0  0  0  0  0  0  0  0  0
   50.8853   13.9336   17.9701 H   0  0  0  0  0  0  0  0  0  0  0  0
   51.8197   12.5257   18.4695 H   0  0  0  0  0  0  0  0  0  0  0  0
   46.9744   12.6251   19.0007 H   0  0  0  0  0  0  0  0  0  0  0  0
   46.7243   12.0447   20.6392 H   0  0  0  0  0  0  0  0  0  0  0  0
   51.3341    8.6177   20.6116 H   0  0  0  0  0  0  0  0  0  0  0  0
   48.8438    8.5544   21.4072 H   0  0  0  0  0  0  0  0  0  0  0  0
   47.2445   14.5111   20.3655 H   0  0  0  0  0  0  0  0  0  0  0  0
   48.1061   13.6432   21.6247 H   0  0  0  0  0  0  0  0  0  0  0  0
   50.8306   12.3808   15.7252 H   0  0  0  0  0  0  0  0  0  0  0  0
   49.4978   10.6564   14.5700 H   0  0  0  0  0  0  0  0  0  0  0  0
   47.9816    8.9879   14.8143 H   0  0  0  0  0  0  0  0  0  0  0  0
   48.6492    7.8978   18.8024 H   0  0  0  0  0  0  0  0  0  0  0  0
   49.9819   15.3099   21.5942 H   0  0  0  0  0  0  0  0  0  0  0  0
   50.6431   15.7784   20.0111 H   0  0  0  0  0  0  0  0  0  0  0  0
   48.9890   16.2052   20.4226 H   0  0  0  0  0  0  0  0  0  0  0  0
   48.7132   14.2107   20.4018 H   0  0  0  0  0  0  0  0  0  0  0  0
   50.2710   13.9277   17.5375 H   0  0  0  0  0  0  0  0  0  0  0  0
   47.8413   12.5997   22.1427 H   0  0  0  0  0  0  0  0  0  0  0  0
   46.2603   13.0636   20.1266 H   0  0  0  0  0  0  0  0  0  0  0  0
   48.7837   10.1507   21.9451 H   0  0  0  0  0  0  0  0  0  0  0  0
   47.2641   10.6058   21.1781 H   0  0  0  0  0  0  0  0  0  0  0  0
   51.7666   12.4416   19.1804 H   0  0  0  0  0  0  0  0  0  0  0  0
   51.1736   13.9300   19.9057 H   0  0  0  0  0  0  0  0  0  0  0  0
   45.9904   13.4724   17.7534 H   0  0  0  0  0  0  0  0  0  0  0  0
   48.2202   14.7753   17.1742 H   0  0  0  0  0  0  0  0  0  0  0  0
   52.0138   12.5239   21.6856 H   0  0  0  0  0  0  0  0  0  0  0  0
   51.1871   11.1229   21.0952 H   0  0  0  0  0  0  0  0  0  0  0  0
   48.3151    8.2008   20.0198 H   0  0  0  0  0  0  0  0  0  0  0  0
   48.9365    7.5885   17.7346 H   0  0  0  0  0  0  0  0  0  0  0  0
   50.1229   14.6018   22.0735 H   0  0  0  0  0  0  0  0  0  0  0  0
   50.9550   13.7738   23.3993 H   0  0  0  0  0  0  0  0  0  0  0  0
   49.2102   13.9328   23.4423 H   0  0  0  0  0  0  0  0  0  0  0  0
   48.3109   12.4057   15.8080 H   0  0  0  0  0  0  0  0  0  0  0  0
   50.3833    7.3917   15.8501 H   0  0  0  0  0  0  0  0  0  0  0  0
   49.9918    8.0707   14.2652 H   0  0  0  0  0  0  0  0  0  0  0  0
   48.6675    7.7073   15.3781 H   0  0  0  0  0  0  0  0  0  0  0  0
  2  1  1  0
  3  1  2  0
  4  1  1  0
  5  3  1  0
  6  7  1  0
  7  4  2  0
  8  2  2  0
  9 12  2  0
 10  2  1  0
 11 14  2  0
 12 13  1  0
 13 10  1  0
 14 15  1  0
 15 13  2  0
 16 21  2  0
 17  5  1  0
 18  6  1  0
 19  9  1  0
 20 11  1  0
 21  4  1  0
 22 17  1  0
 23 19  1  0
 24 18  1  0
 25 20  1  0
 16  8  1  0
  6  5  2  0
 11  9  1  0
 27 26  1  0
 28 26  1  0
 29 27  2  0
 30 26  1  0
 30 31  1  0
 32 28  1  0
 33 27  1  0
 28 34  1  0
 32 35  1  0
 36 41  1  0
 26 37  1  6
 38 39  1  0
 39 30  1  0
 40 29  1  0
 41 37  1  0
 42 33  2  0
 43 42  1  0
 44 40  1  0
 39 45  1  0
 46 36  1  0
 29 31  1  0
 32 36  1  0
 38 34  2  0
 35 33  1  0
 43 40  2  0
 48 47  1  0
 49 47  1  0
 50 48  2  0
 51 47  1  0
 52 51  1  0
 53 49  1  0
 54 62  1  0
 55 48  1  0
 49 56  1  0
 53 57  1  0
 47 58  1  1
 59 60  1  0
 60 51  1  0
 61 50  1  0
 62 58  1  0
 63 55  2  0
 64 63  1  0
 65 54  1  0
 60 66  1  0
 67 61  1  0
 68 67  1  0
 52 50  1  0
 53 54  1  0
 59 56  2  0
 57 55  1  0
 64 61  2  0
  3 69  1  0
  7 70  1  0
 10 71  1  0
 10 72  1  0
 12 73  1  0
 14 74  1  0
 15 75  1  0
 16 76  1  0
 21 77  1  0
 22 78  1  0
 22 79  1  0
 22 80  1  0
 23 81  1  0
 23 82  1  0
 23 83  1  0
 24 84  1  0
 24 85  1  0
 24 86  1  0
 25 87  1  0
 25 88  1  0
 25 89  1  0
 28 90  1  6
 30 91  1  6
 32 92  1  1
 34 93  1  0
 35 94  1  0
 35 95  1  0
 37 96  1  0
 37 97  1  0
 38 98  1  0
 39 99  1  6
 41100  1  0
 41101  1  0
 42102  1  0
 43103  1  0
 44104  1  0
 45105  1  0
 46106  1  0
 46107  1  0
 46108  1  0
 49109  1  6
 51110  1  1
 53111  1  6
 56112  1  0
 57113  1  0
 57114  1  0
 58115  1  0
 58116  1  0
 59117  1  0
 60118  1  6
 62119  1  0
 62120  1  0
 63121  1  0
 64122  1  0
 65123  1  0
 65124  1  0
 65125  1  0
 66126  1  0
 68127  1  0
 68128  1  0
 68129  1  0
M  END
> <Uni-Dock RESULT> 
ENERGY=   -6.040  LOWER_BOUND=    1.721  UPPER_BOUND=    4.038
INTER + INTRA:          -6.040
INTER:                  -6.040
INTRA:                   0.000
UNBOUND:                 0.000

$$$$

     RDKit          3D

129139  0  0  0  0  0  0  0  0999 V2000
   48.9324   13.3821   19.5154 C   0  0  0  0  0  0  0  0  0  0  0  0
   47.6435   12.8117   19.3543 C   0  0  0  0  0  0  0  0  0  0  0  0
   49.6570   13.4338   20.7323 C   0  0  0  0  0  0  0  0  0  0  0  0
   49.5319   13.9445   18.3681 C   0  0  0  0  0  0  0  0  0  0  0  0
   50.9249   14.0237   20.8137 C   0  0  0  0  0  0  0  0  0  0  0  0
   51.5088   14.5709   19.6600 C   0  0  0  0  0  0  0  0  0  0  0  0
   50.8088   14.5281   18.4507 C   0  0  0  0  0  0  0  0  0  0  0  0
   46.9826   12.7946   18.1627 N   0  0  0  0  0  0  0  0  0  0  0  0
   48.2319    9.0344   22.2784 C   0  0  0  0  0  0  0  0  0  0  0  0
   46.8959   12.1495   20.4958 C   0  0  0  0  0  0  0  0  0  0  0  0
   48.0542    8.0467   21.2913 C   0  0  0  0  0  0  0  0  0  0  0  0
   47.8475   10.3579   22.0231 C   0  0  0  0  0  0  0  0  0  0  0  0
   47.3216   10.7236   20.7751 C   0  0  0  0  0  0  0  0  0  0  0  0
   47.5254    8.4098   20.0495 C   0  0  0  0  0  0  0  0  0  0  0  0
   47.1646    9.7356   19.7950 C   0  0  0  0  0  0  0  0  0  0  0  0
   47.5943   13.3427   17.0978 C   0  0  0  0  0  0  0  0  0  0  0  0
   51.6702   14.1079   21.9635 O   0  0  0  0  0  0  0  0  0  0  0  0
   52.7531   15.1284   19.8196 O   0  0  0  0  0  0  0  0  0  0  0  0
   48.7394    8.6144   23.4843 O   0  0  0  0  0  0  0  0  0  0  0  0
   48.4395    6.7743   21.6311 O   0  0  0  0  0  0  0  0  0  0  0  0
   48.8481   13.9187   17.1491 C   0  0  0  0  0  0  0  0  0  0  0  0
   51.0804   13.6579   23.1739 C   0  0  0  0  0  0  0  0  0  0  0  0
   49.4701    9.5825   24.2250 C   0  0  0  0  0  0  0  0  0  0  0  0
   53.3975   15.6531   18.6681 C   0  0  0  0  0  0  0  0  0  0  0  0
   48.1572    5.7359   20.7041 C   0  0  0  0  0  0  0  0  0  0  0  0
   49.5792   12.0846   21.2974 C   0  0  2  0  0  0  0  0  0  0  0  0
   48.6545   11.0322   20.7610 C   0  0  0  0  0  0  0  0  0  0  0  0
   50.7497   12.2530   20.3218 C   0  0  2  0  0  0  0  0  0  0  0  0
   48.1196   10.2872   21.7901 C   0  0  0  0  0  0  0  0  0  0  0  0
   49.8537   11.4070   22.6573 C   0  0  1  0  0  0  0  0  0  0  0  0
   48.6632   10.6153   23.0074 O   0  0  0  0  0  0  0  0  0  0  0  0
   50.1054   12.6042   18.9343 C   0  0  1  0  0  0  0  0  0  0  0  0
   48.4113   10.7422   19.4287 C   0  0  0  0  0  0  0  0  0  0  0  0
   51.6796   11.0649   20.3146 C   0  0  0  0  0  0  0  0  0  0  0  0
   49.2385   11.4304   18.3737 C   0  0  0  0  0  0  0  0  0  0  0  0
   49.2183   13.7984   19.0008 N   0  0  0  0  0  0  0  0  0  0  0  0
   48.8024   13.4182   21.4355 C   0  0  0  0  0  0  0  0  0  0  0  0
   51.8342   10.2824   21.3937 C   0  0  0  0  0  0  0  0  0  0  0  0
   51.1283   10.5085   22.7004 C   0  0  2  0  0  0  0  0  0  0  0  0
   47.2102    9.2851   21.5329 C   0  0  0  0  0  0  0  0  0  0  0  0
   49.1373   14.4228   20.3203 C   0  0  0  0  0  0  0  0  0  0  0  0
   47.4924    9.7265   19.1517 C   0  0  0  0  0  0  0  0  0  0  0  0
   46.8765    9.0143   20.2021 C   0  0  0  0  0  0  0  0  0  0  0  0
   46.6893    8.5618   22.5611 O   0  0  0  0  0  0  0  0  0  0  0  0
   50.8732    9.2284   23.2776 O   0  0  0  0  0  0  0  0  0  0  0  0
   49.5461   14.7784   17.9679 C   0  0  0  0  0  0  0  0  0  0  0  0
   49.2391   12.1863   19.6102 C   0  0  2  0  0  0  0  0  0  0  0  0
   49.3477   11.1492   20.6804 C   0  0  0  0  0  0  0  0  0  0  0  0
   49.2647   13.5750   20.2598 C   0  0  2  0  0  0  0  0  0  0  0  0
   48.5510   10.0616   20.3943 C   0  0  0  0  0  0  0  0  0  0  0  0
   47.9074   11.7065   18.9986 C   0  0  1  0  0  0  0  0  0  0  0  0
   47.7916   10.2620   19.2656 O   0  0  0  0  0  0  0  0  0  0  0  0
   50.6092   13.6645   21.0530 C   0  0  2  0  0  0  0  0  0  0  0  0
   51.7879   13.5716   20.1460 N   0  0  0  0  0  0  0  0  0  0  0  0
   50.0609   11.2649   21.8581 C   0  0  0  0  0  0  0  0  0  0  0  0
   48.0218   13.8482   21.0733 C   0  0  0  0  0  0  0  0  0  0  0  0
   50.7121   12.5833   22.1881 C   0  0  0  0  0  0  0  0  0  0  0  0
   50.4247   12.0606   18.6312 C   0  0  0  0  0  0  0  0  0  0  0  0
   46.8363   13.3204   20.7326 C   0  0  0  0  0  0  0  0  0  0  0  0
   46.6417   12.4484   19.5245 C   0  0  2  0  0  0  0  0  0  0  0  0
   48.5131    8.9580   21.2276 C   0  0  0  0  0  0  0  0  0  0  0  0
   51.7746   12.3679   19.2998 C   0  0  0  0  0  0  0  0  0  0  0  0
   50.0423   10.1682   22.7186 C   0  0  0  0  0  0  0  0  0  0  0  0
   49.2896    9.0157   22.3955 C   0  0  0  0  0  0  0  0  0  0  0  0
   51.9869   14.7836   19.3521 C   0  0  0  0  0  0  0  0  0  0  0  0
   45.5709   11.5481   19.8025 O   0  0  0  0  0  0  0  0  0  0  0  0
   47.7004    7.9306   20.8476 O   0  0  0  0  0  0  0  0  0  0  0  0
   47.6644    6.7914   21.6965 C   0  0  0  0  0  0  0  0  0  0  0  0
   49.2132   13.0028   21.6201 H   0  0  0  0  0  0  0  0  0  0  0  0
   51.2420   14.9498   17.5489 H   0  0  0  0  0  0  0  0  0  0  0  0
   46.9720   12.7693   21.3970 H   0  0  0  0  0  0  0  0  0  0  0  0
   45.8228   12.1364   20.2598 H   0  0  0  0  0  0  0  0  0  0  0  0
   47.9311   11.1113   22.7989 H   0  0  0  0  0  0  0  0  0  0  0  0
   47.3822    7.6865   19.2536 H   0  0  0  0  0  0  0  0  0  0  0  0
   46.7511    9.9947   18.8203 H   0  0  0  0  0  0  0  0  0  0  0  0
   47.0322   13.3054   16.1691 H   0  0  0  0  0  0  0  0  0  0  0  0
   49.2779   14.3402   16.2461 H   0  0  0  0  0  0  0  0  0  0  0  0
   50.1645   14.2145   23.4001 H   0  0  0  0  0  0  0  0  0  0  0  0
   51.7918   13.8463   23.9840 H   0  0  0  0  0  0  0  0  0  0  0  0
   50.8915   12.5799   23.1427 H   0  0  0  0  0  0  0  0  0  0  0  0
   50.0315    9.0543   25.0020 H   0  0  0  0  0  0  0  0  0  0  0  0
   50.1917   10.1143   23.5954 H   0  0  0  0  0  0  0  0  0  0  0  0
   48.7925   10.2827   24.7236 H   0  0  0  0  0  0  0  0  0  0  0  0
   54.3774   16.0308   18.9759 H   0  0  0  0  0  0  0  0  0  0  0  0
   53.5630   14.8732   17.9172 H   0  0  0  0  0  0  0  0  0  0  0  0
   52.8341   16.4938   18.2506 H   0  0  0  0  0  0  0  0  0  0  0  0
   48.7282    5.8678   19.7790 H   0  0  0  0  0  0  0  0  0  0  0  0
   48.4721    4.7900   21.1553 H   0  0  0  0  0  0  0  0  0  0  0  0
   47.0830    5.6658   20.5009 H   0  0  0  0  0  0  0  0  0  0  0  0
   51.3789   13.0990   20.6342 H   0  0  0  0  0  0  0  0  0  0  0  0
   49.9602   12.1586   23.4493 H   0  0  0  0  0  0  0  0  0  0  0  0
   50.9213   12.7863   18.2210 H   0  0  0  0  0  0  0  0  0  0  0  0
   52.2652   10.8677   19.4203 H   0  0  0  0  0  0  0  0  0  0  0  0
   48.5905   11.7819   17.5611 H   0  0  0  0  0  0  0  0  0  0  0  0
   49.9136   10.6814   17.9397 H   0  0  0  0  0  0  0  0  0  0  0  0
   47.7171   13.2499   21.4536 H   0  0  0  0  0  0  0  0  0  0  0  0
   49.0532   13.9036   22.3871 H   0  0  0  0  0  0  0  0  0  0  0  0
   52.5391    9.4550   21.3602 H   0  0  0  0  0  0  0  0  0  0  0  0
   51.8573   10.9958   23.3600 H   0  0  0  0  0  0  0  0  0  0  0  0
   48.3604   15.1973   20.3195 H   0  0  0  0  0  0  0  0  0  0  0  0
   50.0785   14.9336   20.5640 H   0  0  0  0  0  0  0  0  0  0  0  0
   47.2662    9.4613   18.1217 H   0  0  0  0  0  0  0  0  0  0  0  0
   46.1716    8.2260   19.9549 H   0  0  0  0  0  0  0  0  0  0  0  0
   46.0658    7.9124   22.1983 H   0  0  0  0  0  0  0  0  0  0  0  0
   49.9003    9.1454   23.3453 H   0  0  0  0  0  0  0  0  0  0  0  0
   50.5453   15.2052   18.1134 H   0  0  0  0  0  0  0  0  0  0  0  0
   49.5064   14.3202   16.9730 H   0  0  0  0  0  0  0  0  0  0  0  0
   48.8178   15.5972   17.9643 H   0  0  0  0  0  0  0  0  0  0  0  0
   49.2645   14.3469   19.4781 H   0  0  0  0  0  0  0  0  0  0  0  0
   47.9235   11.8090   17.9059 H   0  0  0  0  0  0  0  0  0  0  0  0
   50.6649   14.6365   21.5617 H   0  0  0  0  0  0  0  0  0  0  0  0
   48.0898   14.5173   21.9274 H   0  0  0  0  0  0  0  0  0  0  0  0
   51.7611   12.4220   22.4668 H   0  0  0  0  0  0  0  0  0  0  0  0
   50.2064   12.9834   23.0770 H   0  0  0  0  0  0  0  0  0  0  0  0
   50.4714   11.0546   18.1940 H   0  0  0  0  0  0  0  0  0  0  0  0
   50.2717   12.7557   17.7951 H   0  0  0  0  0  0  0  0  0  0  0  0
   45.9494   13.5619   21.3129 H   0  0  0  0  0  0  0  0  0  0  0  0
   46.2836   13.1104   18.7265 H   0  0  0  0  0  0  0  0  0  0  0  0
   52.5537   12.4316   18.5292 H   0  0  0  0  0  0  0  0  0  0  0  0
   52.0756   11.5109   19.9144 H   0  0  0  0  0  0  0  0  0  0  0  0
   50.5894   10.2003   23.6583 H   0  0  0  0  0  0  0  0  0  0  0  0
   49.3062    8.1930   23.1038 H   0  0  0  0  0  0  0  0  0  0  0  0
   51.2152   14.9312   18.5902 H   0  0  0  0  0  0  0  0  0  0  0  0
   52.9578   14.7462   18.8444 H   0  0  0  0  0  0  0  0  0  0  0  0
   52.0122   15.6705   19.9945 H   0  0  0  0  0  0  0  0  0  0  0  0
   45.9796   10.6679   19.9230 H   0  0  0  0  0  0  0  0  0  0  0  0
   48.6523    6.3248   21.7752 H   0  0  0  0  0  0  0  0  0  0  0  0
   46.9859    6.0600   21.2466 H   0  0  0  0  0  0  0  0  0  0  0  0
   47.2681    7.0484   22.6845 H   0  0  0  0  0  0  0  0  0  0  0  0
  2  1  1  0
  3  1  2  0
  4  1  1  0
  5  3  1  0
  6  7  1  0
  7  4  2  0
  8  2  2  0
  9 12  2  0
 10  2  1  0
 11 14  2  0
 12 13  1  0
 13 10  1  0
 14 15  1  0
 15 13  2  0
 16 21  2  0
 17  5  1  0
 18  6  1  0
 19  9  1  0
 20 11  1  0
 21  4  1  0
 22 17  1  0
 23 19  1  0
 24 18  1  0
 25 20  1  0
 16  8  1  0
  6  5  2  0
 11  9  1  0
 27 26  1  0
 28 26  1  0
 29 27  2  0
 30 26  1  0
 30 31  1  0
 32 28  1  0
 33 27  1  0
 28 34  1  0
 32 35  1  0
 36 41  1  0
 26 37  1  6
 38 39  1  0
 39 30  1  0
 40 29  1  0
 41 37  1  0
 42 33  2  0
 43 42  1  0
 44 40  1  0
 39 45  1  0
 46 36  1  0
 29 31  1  0
 32 36  1  0
 38 34  2  0
 35 33  1  0
 43 40  2  0
 48 47  1  0
 49 47  1  0
 50 48  2  0
 51 47  1  0
 52 51  1  0
 53 49  1  0
 54 62  1  0
 55 48  1  0
 49 56  1  0
 53 57  1  0
 47 58  1  1
 59 60  1  0
 60 51  1  0
 61 50  1  0
 62 58  1  0
 63 55  2  0
 64 63  1  0
 65 54  1  0
 60 66  1  0
 67 61  1  0
 68 67  1  0
 52 50  1  0
 53 54  1  0
 59 56  2  0
 57 55  1  0
 64 61  2  0
  3 69  1  0
  7 70  1  0
 10 71  1  0
 10 72  1  0
 12 73  1  0
 14 74  1  0
 15 75  1  0
 16 76  1  0
 21 77  1  0
 22 78  1  0
 22 79  1  0
 22 80  1  0
 23 81  1  0
 23 82  1  0
 23 83  1  0
 24 84  1  0
 24 85  1  0
 24 86  1  0
 25 87  1  0
 25 88  1  0
 25 89  1  0
 28 90  1  6
 30 91  1  6
 32 92  1  1
 34 93  1  0
 35 94  1  0
 35 95  1  0
 37 96  1  0
 37 97  1  0
 38 98  1  0
 39 99  1  6
 41100  1  0
 41101  1  0
 42102  1  0
 43103  1  0
 44104  1  0
 45105  1  0
 46106  1  0
 46107  1  0
 46108  1  0
 49109  1  6
 51110  1  1
 53111  1  6
 56112  1  0
 57113  1  0
 57114  1  0
 58115  1  0
 58116  1  0
 59117  1  0
 60118  1  6
 62119  1  0
 62120  1  0
 63121  1  0
 64122  1  0
 65123  1  0
 65124  1  0
 65125  1  0
 66126  1  0
 68127  1  0
 68128  1  0
 68129  1  0
M  END
> <Uni-Dock RESULT> 
ENERGY=   -5.927  LOWER_BOUND=    2.265  UPPER_BOUND=    5.884
INTER + INTRA:          -5.927
INTER:                  -5.927
INTRA:                   0.000
UNBOUND:                 0.000

$$$$

     RDKit          3D

129139  0  0  0  0  0  0  0  0999 V2000
   48.9834    9.4335   20.1135 C   0  0  0  0  0  0  0  0  0  0  0  0
   49.1039    8.3364   21.0049 C   0  0  0  0  0  0  0  0  0  0  0  0
   49.9701    9.8417   19.1818 C   0  0  0  0  0  0  0  0  0  0  0  0
   47.7835   10.1747   20.1686 C   0  0  0  0  0  0  0  0  0  0  0  0
   49.7805   10.9444   18.3390 C   0  0  0  0  0  0  0  0  0  0  0  0
   48.5769   11.6648   18.4024 C   0  0  0  0  0  0  0  0  0  0  0  0
   47.5920   11.2758   19.3151 C   0  0  0  0  0  0  0  0  0  0  0  0
   48.1285    7.9886   21.8906 N   0  0  0  0  0  0  0  0  0  0  0  0
   51.3756    5.3190   18.0217 C   0  0  0  0  0  0  0  0  0  0  0  0
   50.3263    7.4390   21.0336 C   0  0  0  0  0  0  0  0  0  0  0  0
   50.3728    4.3312   18.0091 C   0  0  0  0  0  0  0  0  0  0  0  0
   51.3647    6.3166   19.0063 C   0  0  0  0  0  0  0  0  0  0  0  0
   50.3392    6.3695   19.9619 C   0  0  0  0  0  0  0  0  0  0  0  0
   49.3538    4.3806   18.9645 C   0  0  0  0  0  0  0  0  0  0  0  0
   49.3377    5.3911   19.9296 C   0  0  0  0  0  0  0  0  0  0  0  0
   47.0032    8.7248   21.9062 C   0  0  0  0  0  0  0  0  0  0  0  0
   50.7008   11.3891   17.4225 O   0  0  0  0  0  0  0  0  0  0  0  0
   48.4652   12.7300   17.5438 O   0  0  0  0  0  0  0  0  0  0  0  0
   52.3600    5.2082   17.0694 O   0  0  0  0  0  0  0  0  0  0  0  0
   50.4699    3.3818   17.0231 O   0  0  0  0  0  0  0  0  0  0  0  0
   46.7868    9.8079   21.0777 C   0  0  0  0  0  0  0  0  0  0  0  0
   51.9701   10.7542   17.3915 C   0  0  0  0  0  0  0  0  0  0  0  0
   52.9811    6.4224   16.6699 C   0  0  0  0  0  0  0  0  0  0  0  0
   47.2459   13.4580   17.5450 C   0  0  0  0  0  0  0  0  0  0  0  0
   49.5466    2.3032   17.0607 C   0  0  0  0  0  0  0  0  0  0  0  0
   50.3956    8.6201   18.4944 C   0  0  2  0  0  0  0  0  0  0  0  0
   50.0123    7.2484   18.9656 C   0  0  0  0  0  0  0  0  0  0  0  0
   49.1729    9.2739   17.8406 C   0  0  2  0  0  0  0  0  0  0  0  0
   51.0633    6.3706   18.8073 C   0  0  0  0  0  0  0  0  0  0  0  0
   51.5619    8.1785   17.5842 C   0  0  1  0  0  0  0  0  0  0  0  0
   52.1255    6.9430   18.1522 O   0  0  0  0  0  0  0  0  0  0  0  0
   48.0425    9.2563   18.9294 C   0  0  1  0  0  0  0  0  0  0  0  0
   48.7659    6.8430   19.4132 C   0  0  0  0  0  0  0  0  0  0  0  0
   48.8044    8.6370   16.5234 C   0  0  0  0  0  0  0  0  0  0  0  0
   47.6087    7.8020   19.3042 C   0  0  0  0  0  0  0  0  0  0  0  0
   48.4576    9.9197   20.1964 N   0  0  0  0  0  0  0  0  0  0  0  0
   50.8651    9.4597   19.7093 C   0  0  0  0  0  0  0  0  0  0  0  0
   49.7212    8.0399   15.7466 C   0  0  0  0  0  0  0  0  0  0  0  0
   51.1820    7.9572   16.0873 C   0  0  2  0  0  0  0  0  0  0  0  0
   50.9494    5.0584   19.2104 C   0  0  0  0  0  0  0  0  0  0  0  0
   49.8096   10.4757   20.1768 C   0  0  0  0  0  0  0  0  0  0  0  0
   48.6340    5.5138   19.8239 C   0  0  0  0  0  0  0  0  0  0  0  0
   49.7297    4.6291   19.7433 C   0  0  0  0  0  0  0  0  0  0  0  0
   51.9981    4.2063   19.0500 O   0  0  0  0  0  0  0  0  0  0  0  0
   51.6720    6.7171   15.5784 O   0  0  0  0  0  0  0  0  0  0  0  0
   47.4804   10.9129   20.6364 C   0  0  0  0  0  0  0  0  0  0  0  0
   48.8733    8.5099   19.2963 C   0  0  2  0  0  0  0  0  0  0  0  0
   49.7675    7.6648   18.4485 C   0  0  0  0  0  0  0  0  0  0  0  0
   49.6322    9.7765   19.7095 C   0  0  2  0  0  0  0  0  0  0  0  0
   49.5879    6.3267   18.7256 C   0  0  0  0  0  0  0  0  0  0  0  0
   48.5814    7.4616   20.3889 C   0  0  1  0  0  0  0  0  0  0  0  0
   48.7206    6.1297   19.7743 O   0  0  0  0  0  0  0  0  0  0  0  0
   50.0554   10.4878   18.3830 C   0  0  2  0  0  0  0  0  0  0  0  0
   48.8698   10.9145   17.5875 N   0  0  0  0  0  0  0  0  0  0  0  0
   50.7261    8.1238   17.5656 C   0  0  0  0  0  0  0  0  0  0  0  0
   50.7629    9.4788   20.6656 C   0  0  0  0  0  0  0  0  0  0  0  0
   51.0089    9.6027   17.5026 C   0  0  0  0  0  0  0  0  0  0  0  0
   47.6133    8.9085   18.5003 C   0  0  0  0  0  0  0  0  0  0  0  0
   50.6885    8.4616   21.5374 C   0  0  0  0  0  0  0  0  0  0  0  0
   49.4895    7.5632   21.6514 C   0  0  2  0  0  0  0  0  0  0  0  0
   50.2857    5.3494   18.0388 C   0  0  0  0  0  0  0  0  0  0  0  0
   47.9377    9.8129   17.3000 C   0  0  0  0  0  0  0  0  0  0  0  0
   51.4458    7.1621   16.8579 C   0  0  0  0  0  0  0  0  0  0  0  0
   51.2126    5.7851   17.0790 C   0  0  0  0  0  0  0  0  0  0  0  0
   48.1793   12.0626   18.1740 C   0  0  0  0  0  0  0  0  0  0  0  0
   49.9418    6.2833   22.0892 O   0  0  0  0  0  0  0  0  0  0  0  0
   50.0263    4.0551   18.3823 O   0  0  0  0  0  0  0  0  0  0  0  0
   50.7350    3.0474   17.6737 C   0  0  0  0  0  0  0  0  0  0  0  0
   50.8938    9.2810   19.1238 H   0  0  0  0  0  0  0  0  0  0  0  0
   46.6567   11.8231   19.3817 H   0  0  0  0  0  0  0  0  0  0  0  0
   51.2355    8.0506   20.9938 H   0  0  0  0  0  0  0  0  0  0  0  0
   50.3758    6.9341   22.0083 H   0  0  0  0  0  0  0  0  0  0  0  0
   52.1651    7.0472   19.0539 H   0  0  0  0  0  0  0  0  0  0  0  0
   48.5525    3.6494   18.9865 H   0  0  0  0  0  0  0  0  0  0  0  0
   48.5348    5.4074   20.6666 H   0  0  0  0  0  0  0  0  0  0  0  0
   46.2527    8.4111   22.6260 H   0  0  0  0  0  0  0  0  0  0  0  0
   45.8512   10.3533   21.1475 H   0  0  0  0  0  0  0  0  0  0  0  0
   52.4811   10.8410   18.3565 H   0  0  0  0  0  0  0  0  0  0  0  0
   52.5835   11.2671   16.6441 H   0  0  0  0  0  0  0  0  0  0  0  0
   51.8792    9.7074   17.0840 H   0  0  0  0  0  0  0  0  0  0  0  0
   53.5285    6.2280   15.7422 H   0  0  0  0  0  0  0  0  0  0  0  0
   52.2438    7.2061   16.4640 H   0  0  0  0  0  0  0  0  0  0  0  0
   53.7067    6.7527   17.4199 H   0  0  0  0  0  0  0  0  0  0  0  0
   47.3265   14.2473   16.7914 H   0  0  0  0  0  0  0  0  0  0  0  0
   46.4023   12.8174   17.2663 H   0  0  0  0  0  0  0  0  0  0  0  0
   47.0762   13.9399   18.5133 H   0  0  0  0  0  0  0  0  0  0  0  0
   48.5237    2.6541   16.8880 H   0  0  0  0  0  0  0  0  0  0  0  0
   49.8023    1.6158   16.2485 H   0  0  0  0  0  0  0  0  0  0  0  0
   49.6222    1.7480   18.0020 H   0  0  0  0  0  0  0  0  0  0  0  0
   49.3964   10.3215   17.5921 H   0  0  0  0  0  0  0  0  0  0  0  0
   52.3716    8.9182   17.6070 H   0  0  0  0  0  0  0  0  0  0  0  0
   47.1648    9.7688   18.5115 H   0  0  0  0  0  0  0  0  0  0  0  0
   47.7737    8.7022   16.1841 H   0  0  0  0  0  0  0  0  0  0  0  0
   47.0315    7.7989   20.2373 H   0  0  0  0  0  0  0  0  0  0  0  0
   46.9408    7.4290   18.5169 H   0  0  0  0  0  0  0  0  0  0  0  0
   51.1460    8.8181   20.5554 H   0  0  0  0  0  0  0  0  0  0  0  0
   51.7638   10.0321   19.4470 H   0  0  0  0  0  0  0  0  0  0  0  0
   49.4224    7.6215   14.7884 H   0  0  0  0  0  0  0  0  0  0  0  0
   51.6767    8.7402   15.4988 H   0  0  0  0  0  0  0  0  0  0  0  0
   50.0887   10.8134   21.1826 H   0  0  0  0  0  0  0  0  0  0  0  0
   49.8523   11.3643   19.5328 H   0  0  0  0  0  0  0  0  0  0  0  0
   47.6762    5.1465   20.1844 H   0  0  0  0  0  0  0  0  0  0  0  0
   49.5943    3.6003   20.0639 H   0  0  0  0  0  0  0  0  0  0  0  0
   51.7447    3.3350   19.3947 H   0  0  0  0  0  0  0  0  0  0  0  0
   51.9803    6.2039   16.3528 H   0  0  0  0  0  0  0  0  0  0  0  0
   47.4051   11.7502   19.9329 H   0  0  0  0  0  0  0  0  0  0  0  0
   46.4883   10.4592   20.7426 H   0  0  0  0  0  0  0  0  0  0  0  0
   47.7487   11.3120   21.6211 H   0  0  0  0  0  0  0  0  0  0  0  0
   48.9600   10.4425   20.2678 H   0  0  0  0  0  0  0  0  0  0  0  0
   47.5380    7.5301   20.7228 H   0  0  0  0  0  0  0  0  0  0  0  0
   50.6286   11.3931   18.6251 H   0  0  0  0  0  0  0  0  0  0  0  0
   51.6339   10.1293   20.6676 H   0  0  0  0  0  0  0  0  0  0  0  0
   50.9889    9.9424   16.4594 H   0  0  0  0  0  0  0  0  0  0  0  0
   52.0344    9.7543   17.8652 H   0  0  0  0  0  0  0  0  0  0  0  0
   47.0789    8.0214   18.1360 H   0  0  0  0  0  0  0  0  0  0  0  0
   46.9207    9.4353   19.1698 H   0  0  0  0  0  0  0  0  0  0  0  0
   51.5000    8.2905   22.2401 H   0  0  0  0  0  0  0  0  0  0  0  0
   48.8830    7.9685   22.4707 H   0  0  0  0  0  0  0  0  0  0  0  0
   47.0025   10.2016   16.8769 H   0  0  0  0  0  0  0  0  0  0  0  0
   48.3630    9.2029   16.4938 H   0  0  0  0  0  0  0  0  0  0  0  0
   52.2101    7.4648   16.1455 H   0  0  0  0  0  0  0  0  0  0  0  0
   51.8049    5.0794   16.5047 H   0  0  0  0  0  0  0  0  0  0  0  0
   47.6620   11.8231   19.1083 H   0  0  0  0  0  0  0  0  0  0  0  0
   47.4365   12.4555   17.4698 H   0  0  0  0  0  0  0  0  0  0  0  0
   48.8801   12.8819   18.3673 H   0  0  0  0  0  0  0  0  0  0  0  0
   49.8622    5.6878   21.3176 H   0  0  0  0  0  0  0  0  0  0  0  0
   50.5075    3.0818   16.6028 H   0  0  0  0  0  0  0  0  0  0  0  0
   50.4038    2.0757   18.0531 H   0  0  0  0  0  0  0  0  0  0  0  0
   51.8127    3.1239   17.8522 H   0  0  0  0  0  0  0  0  0  0  0  0
  2  1  1  0
  3  1  2  0
  4  1  1  0
  5  3  1  0
  6  7  1  0
  7  4  2  0
  8  2  2  0
  9 12  2  0
 10  2  1  0
 11 14  2  0
 12 13  1  0
 13 10  1  0
 14 15  1  0
 15 13  2  0
 16 21  2  0
 17  5  1  0
 18  6  1  0
 19  9  1  0
 20 11  1  0
 21  4  1  0
 22 17  1  0
 23 19  1  0
 24 18  1  0
 25 20  1  0
 16  8  1  0
  6  5  2  0
 11  9  1  0
 27 26  1  0
 28 26  1  0
 29 27  2  0
 30 26  1  0
 30 31  1  0
 32 28  1  0
 33 27  1  0
 28 34  1  0
 32 35  1  0
 36 41  1  0
 26 37  1  6
 38 39  1  0
 39 30  1  0
 40 29  1  0
 41 37  1  0
 42 33  2  0
 43 42  1  0
 44 40  1  0
 39 45  1  0
 46 36  1  0
 29 31  1  0
 32 36  1  0
 38 34  2  0
 35 33  1  0
 43 40  2  0
 48 47  1  0
 49 47  1  0
 50 48  2  0
 51 47  1  0
 52 51  1  0
 53 49  1  0
 54 62  1  0
 55 48  1  0
 49 56  1  0
 53 57  1  0
 47 58  1  1
 59 60  1  0
 60 51  1  0
 61 50  1  0
 62 58  1  0
 63 55  2  0
 64 63  1  0
 65 54  1  0
 60 66  1  0
 67 61  1  0
 68 67  1  0
 52 50  1  0
 53 54  1  0
 59 56  2  0
 57 55  1  0
 64 61  2  0
  3 69  1  0
  7 70  1  0
 10 71  1  0
 10 72  1  0
 12 73  1  0
 14 74  1  0
 15 75  1  0
 16 76  1  0
 21 77  1  0
 22 78  1  0
 22 79  1  0
 22 80  1  0
 23 81  1  0
 23 82  1  0
 23 83  1  0
 24 84  1  0
 24 85  1  0
 24 86  1  0
 25 87  1  0
 25 88  1  0
 25 89  1  0
 28 90  1  6
 30 91  1  6
 32 92  1  1
 34 93  1  0
 35 94  1  0
 35 95  1  0
 37 96  1  0
 37 97  1  0
 38 98  1  0
 39 99  1  6
 41100  1  0
 41101  1  0
 42102  1  0
 43103  1  0
 44104  1  0
 45105  1  0
 46106  1  0
 46107  1  0
 46108  1  0
 49109  1  6
 51110  1  1
 53111  1  6
 56112  1  0
 57113  1  0
 57114  1  0
 58115  1  0
 58116  1  0
 59117  1  0
 60118  1  6
 62119  1  0
 62120  1  0
 63121  1  0
 64122  1  0
 65123  1  0
 65124  1  0
 65125  1  0
 66126  1  0
 68127  1  0
 68128  1  0
 68129  1  0
M  END
> <Uni-Dock RESULT> 
ENERGY=   -5.713  LOWER_BOUND=    2.280  UPPER_BOUND=    5.625
INTER + INTRA:          -5.713
INTER:                  -5.713
INTRA:                   0.000
UNBOUND:                 0.000

$$$$

     RDKit          3D

129139  0  0  0  0  0  0  0  0999 V2000
   48.1669   11.0881   19.2142 C   0  0  0  0  0  0  0  0  0  0  0  0
   47.8993   11.1692   20.6050 C   0  0  0  0  0  0  0  0  0  0  0  0
   48.2550   12.1946   18.3330 C   0  0  0  0  0  0  0  0  0  0  0  0
   48.3550    9.7986   18.6722 C   0  0  0  0  0  0  0  0  0  0  0  0
   48.5146   12.0327   16.9660 C   0  0  0  0  0  0  0  0  0  0  0  0
   48.7069   10.7425   16.4463 C   0  0  0  0  0  0  0  0  0  0  0  0
   48.6244    9.6394   17.3012 C   0  0  0  0  0  0  0  0  0  0  0  0
   47.8152   10.0730   21.4102 N   0  0  0  0  0  0  0  0  0  0  0  0
   50.4719   15.1293   21.5344 C   0  0  0  0  0  0  0  0  0  0  0  0
   47.7039   12.4911   21.3225 C   0  0  0  0  0  0  0  0  0  0  0  0
   51.3738   14.5207   22.4276 C   0  0  0  0  0  0  0  0  0  0  0  0
   49.2815   14.4762   21.1864 C   0  0  0  0  0  0  0  0  0  0  0  0
   48.9922   13.1982   21.6872 C   0  0  0  0  0  0  0  0  0  0  0  0
   51.0832   13.2494   22.9307 C   0  0  0  0  0  0  0  0  0  0  0  0
   49.9046   12.5955   22.5621 C   0  0  0  0  0  0  0  0  0  0  0  0
   48.0017    8.8656   20.8482 C   0  0  0  0  0  0  0  0  0  0  0  0
   48.6056   13.0644   16.0650 O   0  0  0  0  0  0  0  0  0  0  0  0
   48.9590   10.6659   15.0991 O   0  0  0  0  0  0  0  0  0  0  0  0
   50.8029   16.3857   21.0872 O   0  0  0  0  0  0  0  0  0  0  0  0
   52.5046   15.2371   22.7288 O   0  0  0  0  0  0  0  0  0  0  0  0
   48.2710    8.6802   19.5068 C   0  0  0  0  0  0  0  0  0  0  0  0
   48.3206   14.3770   16.5246 C   0  0  0  0  0  0  0  0  0  0  0  0
   50.2972   16.7463   19.8089 C   0  0  0  0  0  0  0  0  0  0  0  0
   49.2035    9.3829   14.5419 C   0  0  0  0  0  0  0  0  0  0  0  0
   53.3705   14.7056   23.7213 C   0  0  0  0  0  0  0  0  0  0  0  0
   49.1219   13.1667   19.0031 C   0  0  2  0  0  0  0  0  0  0  0  0
   49.5311   13.0341   20.4403 C   0  0  0  0  0  0  0  0  0  0  0  0
   49.9069   12.1446   18.1730 C   0  0  2  0  0  0  0  0  0  0  0  0
   49.5509   14.2681   21.0542 C   0  0  0  0  0  0  0  0  0  0  0  0
   49.4804   14.6608   18.8510 C   0  0  1  0  0  0  0  0  0  0  0  0
   49.3188   15.2930   20.1705 O   0  0  0  0  0  0  0  0  0  0  0  0
   49.5936   10.7438   18.8081 C   0  0  1  0  0  0  0  0  0  0  0  0
   49.9359   11.8767   21.0843 C   0  0  0  0  0  0  0  0  0  0  0  0
   51.3726   12.4847   18.0616 C   0  0  0  0  0  0  0  0  0  0  0  0
   50.1364   10.6252   20.2692 C   0  0  0  0  0  0  0  0  0  0  0  0
   48.1337   10.4562   18.8686 N   0  0  0  0  0  0  0  0  0  0  0  0
   47.6007   12.8977   18.8830 C   0  0  0  0  0  0  0  0  0  0  0  0
   51.8105   13.7515   18.1246 C   0  0  0  0  0  0  0  0  0  0  0  0
   50.9095   14.9419   18.2920 C   0  0  2  0  0  0  0  0  0  0  0  0
   49.8625   14.3828   22.3910 C   0  0  0  0  0  0  0  0  0  0  0  0
   47.2836   11.5063   18.3099 C   0  0  0  0  0  0  0  0  0  0  0  0
   50.2573   11.9773   22.4405 C   0  0  0  0  0  0  0  0  0  0  0  0
   50.1994   13.2240   23.0979 C   0  0  0  0  0  0  0  0  0  0  0  0
   49.8738   15.6084   22.9820 O   0  0  0  0  0  0  0  0  0  0  0  0
   51.6167   15.9101   19.0662 O   0  0  0  0  0  0  0  0  0  0  0  0
   47.8118    9.1508   18.2967 C   0  0  0  0  0  0  0  0  0  0  0  0
   49.2516   11.5512   19.5911 C   0  0  2  0  0  0  0  0  0  0  0  0
   49.8627   12.8934   19.8313 C   0  0  0  0  0  0  0  0  0  0  0  0
   48.0310   11.7173   18.6781 C   0  0  2  0  0  0  0  0  0  0  0  0
   50.3133   13.0039   21.1290 C   0  0  0  0  0  0  0  0  0  0  0  0
   48.9972   11.1786   21.0657 C   0  0  1  0  0  0  0  0  0  0  0  0
   49.9878   11.9010   21.8830 O   0  0  0  0  0  0  0  0  0  0  0  0
   48.5524   12.3869   17.3648 C   0  0  2  0  0  0  0  0  0  0  0  0
   49.5286   11.5134   16.6544 N   0  0  0  0  0  0  0  0  0  0  0  0
   49.9039   13.9426   18.9332 C   0  0  0  0  0  0  0  0  0  0  0  0
   46.8998   12.4467   19.3634 C   0  0  0  0  0  0  0  0  0  0  0  0
   49.1788   13.8049   17.6193 C   0  0  0  0  0  0  0  0  0  0  0  0
   50.2746   10.6199   18.9086 C   0  0  0  0  0  0  0  0  0  0  0  0
   46.7025   12.3401   20.6862 C   0  0  0  0  0  0  0  0  0  0  0  0
   47.5578   11.4858   21.5785 C   0  0  2  0  0  0  0  0  0  0  0  0
   50.9480   14.1491   21.5757 C   0  0  0  0  0  0  0  0  0  0  0  0
   50.6600   11.1013   17.5002 C   0  0  0  0  0  0  0  0  0  0  0  0
   50.5378   15.1106   19.3545 C   0  0  0  0  0  0  0  0  0  0  0  0
   51.0734   15.2053   20.6597 C   0  0  0  0  0  0  0  0  0  0  0  0
   48.8939   10.3644   16.0097 C   0  0  0  0  0  0  0  0  0  0  0  0
   47.5676   12.0801   22.8751 O   0  0  0  0  0  0  0  0  0  0  0  0
   51.3650   14.1520   22.8743 O   0  0  0  0  0  0  0  0  0  0  0  0
   52.0248   15.3234   23.3351 C   0  0  0  0  0  0  0  0  0  0  0  0
   48.1180   13.1903   18.7338 H   0  0  0  0  0  0  0  0  0  0  0  0
   48.7659    8.6339   16.9170 H   0  0  0  0  0  0  0  0  0  0  0  0
   47.0495   13.1409   20.7296 H   0  0  0  0  0  0  0  0  0  0  0  0
   47.1469   12.3135   22.2529 H   0  0  0  0  0  0  0  0  0  0  0  0
   48.5578   14.9642   20.5424 H   0  0  0  0  0  0  0  0  0  0  0  0
   51.7537   12.7351   23.6113 H   0  0  0  0  0  0  0  0  0  0  0  0
   49.6976   11.6060   22.9699 H   0  0  0  0  0  0  0  0  0  0  0  0
   47.9275    8.0208   21.5269 H   0  0  0  0  0  0  0  0  0  0  0  0
   48.4111    7.6737   19.1258 H   0  0  0  0  0  0  0  0  0  0  0  0
   47.3009   14.4470   16.9186 H   0  0  0  0  0  0  0  0  0  0  0  0
   48.3928   15.0551   15.6686 H   0  0  0  0  0  0  0  0  0  0  0  0
   49.0558   14.7021   17.2679 H   0  0  0  0  0  0  0  0  0  0  0  0
   50.8469   17.6298   19.4694 H   0  0  0  0  0  0  0  0  0  0  0  0
   50.4555   15.9515   19.0717 H   0  0  0  0  0  0  0  0  0  0  0  0
   49.2390   17.0185   19.8723 H   0  0  0  0  0  0  0  0  0  0  0  0
   49.4059    9.5145   13.4746 H   0  0  0  0  0  0  0  0  0  0  0  0
   50.0867    8.9174   14.9925 H   0  0  0  0  0  0  0  0  0  0  0  0
   48.3232    8.7388   14.6358 H   0  0  0  0  0  0  0  0  0  0  0  0
   53.8230   13.7661   23.3871 H   0  0  0  0  0  0  0  0  0  0  0  0
   54.1799   15.4251   23.8790 H   0  0  0  0  0  0  0  0  0  0  0  0
   52.8492   14.5775   24.6762 H   0  0  0  0  0  0  0  0  0  0  0  0
   49.5403   12.1432   17.1363 H   0  0  0  0  0  0  0  0  0  0  0  0
   48.7676   15.1637   18.1858 H   0  0  0  0  0  0  0  0  0  0  0  0
   50.0985    9.9790   18.2017 H   0  0  0  0  0  0  0  0  0  0  0  0
   52.0818   11.6796   17.8868 H   0  0  0  0  0  0  0  0  0  0  0  0
   49.6822    9.7682   20.7822 H   0  0  0  0  0  0  0  0  0  0  0  0
   51.2155   10.4299   20.2201 H   0  0  0  0  0  0  0  0  0  0  0  0
   47.0959   13.0109   19.8520 H   0  0  0  0  0  0  0  0  0  0  0  0
   47.1401   13.6318   18.2099 H   0  0  0  0  0  0  0  0  0  0  0  0
   52.8714   13.9591   18.0067 H   0  0  0  0  0  0  0  0  0  0  0  0
   50.7959   15.3807   17.2927 H   0  0  0  0  0  0  0  0  0  0  0  0
   46.2301   11.2860   18.5224 H   0  0  0  0  0  0  0  0  0  0  0  0
   47.3754   11.5360   17.2159 H   0  0  0  0  0  0  0  0  0  0  0  0
   50.5799   11.0972   22.9916 H   0  0  0  0  0  0  0  0  0  0  0  0
   50.4615   13.2714   24.1507 H   0  0  0  0  0  0  0  0  0  0  0  0
   50.1031   15.4985   23.9187 H   0  0  0  0  0  0  0  0  0  0  0  0
   51.0990   16.0384   19.8869 H   0  0  0  0  0  0  0  0  0  0  0  0
   48.0263    9.1124   17.2223 H   0  0  0  0  0  0  0  0  0  0  0  0
   48.3844    8.3589   18.7930 H   0  0  0  0  0  0  0  0  0  0  0  0
   46.7529    8.9117   18.4463 H   0  0  0  0  0  0  0  0  0  0  0  0
   47.6194   10.7292   18.4307 H   0  0  0  0  0  0  0  0  0  0  0  0
   49.1901   10.1113   21.2346 H   0  0  0  0  0  0  0  0  0  0  0  0
   47.7070   12.5527   16.6833 H   0  0  0  0  0  0  0  0  0  0  0  0
   46.2137   13.0364   18.7607 H   0  0  0  0  0  0  0  0  0  0  0  0
   49.8470   14.0800   16.7936 H   0  0  0  0  0  0  0  0  0  0  0  0
   48.3596   14.5363   17.6206 H   0  0  0  0  0  0  0  0  0  0  0  0
   51.1888   10.5287   19.5097 H   0  0  0  0  0  0  0  0  0  0  0  0
   49.8470    9.6111   18.8386 H   0  0  0  0  0  0  0  0  0  0  0  0
   45.8592   12.8455   21.1502 H   0  0  0  0  0  0  0  0  0  0  0  0
   47.0275   10.5315   21.6849 H   0  0  0  0  0  0  0  0  0  0  0  0
   51.2493   10.3219   17.0002 H   0  0  0  0  0  0  0  0  0  0  0  0
   51.3528   11.9472   17.5855 H   0  0  0  0  0  0  0  0  0  0  0  0
   50.6048   15.9680   18.6884 H   0  0  0  0  0  0  0  0  0  0  0  0
   51.5516   16.1397   20.9372 H   0  0  0  0  0  0  0  0  0  0  0  0
   48.5139    9.6259   16.7226 H   0  0  0  0  0  0  0  0  0  0  0  0
   49.6099    9.8587   15.3514 H   0  0  0  0  0  0  0  0  0  0  0  0
   48.0648   10.6853   15.3698 H   0  0  0  0  0  0  0  0  0  0  0  0
   48.4601   12.4619   22.9929 H   0  0  0  0  0  0  0  0  0  0  0  0
   52.9429   15.5100   22.7678 H   0  0  0  0  0  0  0  0  0  0  0  0
   52.3068   15.1596   24.3799 H   0  0  0  0  0  0  0  0  0  0  0  0
   51.3565   16.1904   23.3034 H   0  0  0  0  0  0  0  0  0  0  0  0
  2  1  1  0
  3  1  2  0
  4  1  1  0
  5  3  1  0
  6  7  1  0
  7  4  2  0
  8  2  2  0
  9 12  2  0
 10  2  1  0
 11 14  2  0
 12 13  1  0
 13 10  1  0
 14 15  1  0
 15 13  2  0
 16 21  2  0
 17  5  1  0
 18  6  1  0
 19  9  1  0
 20 11  1  0
 21  4  1  0
 22 17  1  0
 23 19  1  0
 24 18  1  0
 25 20  1  0
 16  8  1  0
  6  5  2  0
 11  9  1  0
 27 26  1  0
 28 26  1  0
 29 27  2  0
 30 26  1  0
 30 31  1  0
 32 28  1  0
 33 27  1  0
 28 34  1  0
 32 35  1  0
 36 41  1  0
 26 37  1  6
 38 39  1  0
 39 30  1  0
 40 29  1  0
 41 37  1  0
 42 33  2  0
 43 42  1  0
 44 40  1  0
 39 45  1  0
 46 36  1  0
 29 31  1  0
 32 36  1  0
 38 34  2  0
 35 33  1  0
 43 40  2  0
 48 47  1  0
 49 47  1  0
 50 48  2  0
 51 47  1  0
 52 51  1  0
 53 49  1  0
 54 62  1  0
 55 48  1  0
 49 56  1  0
 53 57  1  0
 47 58  1  1
 59 60  1  0
 60 51  1  0
 61 50  1  0
 62 58  1  0
 63 55  2  0
 64 63  1  0
 65 54  1  0
 60 66  1  0
 67 61  1  0
 68 67  1  0
 52 50  1  0
 53 54  1  0
 59 56  2  0
 57 55  1  0
 64 61  2  0
  3 69  1  0
  7 70  1  0
 10 71  1  0
 10 72  1  0
 12 73  1  0
 14 74  1  0
 15 75  1  0
 16 76  1  0
 21 77  1  0
 22 78  1  0
 22 79  1  0
 22 80  1  0
 23 81  1  0
 23 82  1  0
 23 83  1  0
 24 84  1  0
 24 85  1  0
 24 86  1  0
 25 87  1  0
 25 88  1  0
 25 89  1  0
 28 90  1  6
 30 91  1  6
 32 92  1  1
 34 93  1  0
 35 94  1  0
 35 95  1  0
 37 96  1  0
 37 97  1  0
 38 98  1  0
 39 99  1  6
 41100  1  0
 41101  1  0
 42102  1  0
 43103  1  0
 44104  1  0
 45105  1  0
 46106  1  0
 46107  1  0
 46108  1  0
 49109  1  6
 51110  1  1
 53111  1  6
 56112  1  0
 57113  1  0
 57114  1  0
 58115  1  0
 58116  1  0
 59117  1  0
 60118  1  6
 62119  1  0
 62120  1  0
 63121  1  0
 64122  1  0
 65123  1  0
 65124  1  0
 65125  1  0
 66126  1  0
 68127  1  0
 68128  1  0
 68129  1  0
M  END
> <Uni-Dock RESULT> 
ENERGY=   -5.649  LOWER_BOUND=    2.369  UPPER_BOUND=    5.466
INTER + INTRA:          -5.649
INTER:                  -5.649
INTRA:                   0.000
UNBOUND:                 0.000

$$$$

     RDKit          3D

129139  0  0  0  0  0  0  0  0999 V2000
   48.8844   10.3814   19.3684 C   0  0  0  0  0  0  0  0  0  0  0  0
   48.1853    9.5772   20.3049 C   0  0  0  0  0  0  0  0  0  0  0  0
   50.2071   10.1471   18.9166 C   0  0  0  0  0  0  0  0  0  0  0  0
   48.2024   11.5047   18.8537 C   0  0  0  0  0  0  0  0  0  0  0  0
   50.8345   10.9942   17.9941 C   0  0  0  0  0  0  0  0  0  0  0  0
   50.1374   12.1025   17.4869 C   0  0  0  0  0  0  0  0  0  0  0  0
   48.8314   12.3485   17.9209 C   0  0  0  0  0  0  0  0  0  0  0  0
   46.9148    9.8497   20.7155 N   0  0  0  0  0  0  0  0  0  0  0  0
   49.7776    5.2914   18.8010 C   0  0  0  0  0  0  0  0  0  0  0  0
   48.7874    8.3265   20.9163 C   0  0  0  0  0  0  0  0  0  0  0  0
   48.5182    4.7786   18.4366 C   0  0  0  0  0  0  0  0  0  0  0  0
   49.8625    6.4322   19.6110 C   0  0  0  0  0  0  0  0  0  0  0  0
   48.7030    7.0990   20.0338 C   0  0  0  0  0  0  0  0  0  0  0  0
   47.3627    5.4400   18.8622 C   0  0  0  0  0  0  0  0  0  0  0  0
   47.4559    6.5893   19.6515 C   0  0  0  0  0  0  0  0  0  0  0  0
   46.3061   10.9310   20.1973 C   0  0  0  0  0  0  0  0  0  0  0  0
   52.1131   10.8212   17.5252 O   0  0  0  0  0  0  0  0  0  0  0  0
   50.8181   12.8831   16.5861 O   0  0  0  0  0  0  0  0  0  0  0  0
   50.8763    4.5889   18.3679 O   0  0  0  0  0  0  0  0  0  0  0  0
   48.5263    3.6485   17.6584 O   0  0  0  0  0  0  0  0  0  0  0  0
   46.8978   11.7741   19.2777 C   0  0  0  0  0  0  0  0  0  0  0  0
   52.8910    9.7729   18.0832 C   0  0  0  0  0  0  0  0  0  0  0  0
   52.0658    5.3438   18.1815 C   0  0  0  0  0  0  0  0  0  0  0  0
   50.1332   13.9885   16.0155 C   0  0  0  0  0  0  0  0  0  0  0  0
   47.2747    3.0374   17.3798 C   0  0  0  0  0  0  0  0  0  0  0  0
   50.2606    8.7255   18.5674 C   0  0  2  0  0  0  0  0  0  0  0  0
   49.1725    7.7590   18.9310 C   0  0  0  0  0  0  0  0  0  0  0  0
   49.7708    9.6031   17.4098 C   0  0  2  0  0  0  0  0  0  0  0  0
   49.7077    6.5433   19.2994 C   0  0  0  0  0  0  0  0  0  0  0  0
   51.3485    7.6699   18.2740 C   0  0  1  0  0  0  0  0  0  0  0  0
   51.0677    6.4965   19.1172 O   0  0  0  0  0  0  0  0  0  0  0  0
   48.4469   10.2791   17.9134 C   0  0  1  0  0  0  0  0  0  0  0  0
   47.8073    7.9721   18.8355 C   0  0  0  0  0  0  0  0  0  0  0  0
   49.6494    8.8435   16.1119 C   0  0  0  0  0  0  0  0  0  0  0  0
   47.3145    9.2337   18.1748 C   0  0  0  0  0  0  0  0  0  0  0  0
   48.6362   11.0326   19.1839 N   0  0  0  0  0  0  0  0  0  0  0  0
   50.5910    9.6032   19.8009 C   0  0  0  0  0  0  0  0  0  0  0  0
   50.4157    7.7749   15.8444 C   0  0  0  0  0  0  0  0  0  0  0  0
   51.4645    7.2415   16.7784 C   0  0  2  0  0  0  0  0  0  0  0  0
   48.8921    5.5127   19.7117 C   0  0  0  0  0  0  0  0  0  0  0  0
   50.0042   11.0211   19.6994 C   0  0  0  0  0  0  0  0  0  0  0  0
   46.9667    6.9349   19.2483 C   0  0  0  0  0  0  0  0  0  0  0  0
   47.5084    5.7157   19.7063 C   0  0  0  0  0  0  0  0  0  0  0  0
   49.4375    4.3202   20.0754 O   0  0  0  0  0  0  0  0  0  0  0  0
   51.5003    5.8237   16.6190 O   0  0  0  0  0  0  0  0  0  0  0  0
   48.1136   12.3940   19.0925 C   0  0  0  0  0  0  0  0  0  0  0  0
   48.6734    9.3934   18.6524 C   0  0  2  0  0  0  0  0  0  0  0  0
   49.3365    8.0939   18.3297 C   0  0  0  0  0  0  0  0  0  0  0  0
   49.7135   10.3459   19.2541 C   0  0  2  0  0  0  0  0  0  0  0  0
   48.4997    7.0333   18.6023 C   0  0  0  0  0  0  0  0  0  0  0  0
   47.5847    8.8365   19.5918 C   0  0  1  0  0  0  0  0  0  0  0  0
   47.3277    7.4410   19.1948 O   0  0  0  0  0  0  0  0  0  0  0  0
   50.8442   10.4945   18.1843 C   0  0  2  0  0  0  0  0  0  0  0  0
   50.3346   11.1200   16.9314 N   0  0  0  0  0  0  0  0  0  0  0  0
   50.6413    7.9278   17.9063 C   0  0  0  0  0  0  0  0  0  0  0  0
   50.1783    9.8961   20.6190 C   0  0  0  0  0  0  0  0  0  0  0  0
   51.5501    9.1290   17.8603 C   0  0  0  0  0  0  0  0  0  0  0  0
   48.0903   10.0214   17.3697 C   0  0  0  0  0  0  0  0  0  0  0  0
   49.3605    9.2311   21.4491 C   0  0  0  0  0  0  0  0  0  0  0  0
   47.9342    8.9028   21.1092 C   0  0  2  0  0  0  0  0  0  0  0  0
   48.8857    5.7288   18.3512 C   0  0  0  0  0  0  0  0  0  0  0  0
   49.1802   10.4107   16.3576 C   0  0  0  0  0  0  0  0  0  0  0  0
   51.0595    6.6239   17.6445 C   0  0  0  0  0  0  0  0  0  0  0  0
   50.1811    5.5345   17.8466 C   0  0  0  0  0  0  0  0  0  0  0  0
   50.0654   12.5495   17.0826 C   0  0  0  0  0  0  0  0  0  0  0  0
   47.5878    7.6988   21.7908 O   0  0  0  0  0  0  0  0  0  0  0  0
   47.9789    4.7537   18.6466 O   0  0  0  0  0  0  0  0  0  0  0  0
   48.3681    3.4125   18.3827 C   0  0  0  0  0  0  0  0  0  0  0  0
   50.7420    9.2873   19.2980 H   0  0  0  0  0  0  0  0  0  0  0  0
   48.2780   13.2028   17.5434 H   0  0  0  0  0  0  0  0  0  0  0  0
   49.8218    8.5247   21.2213 H   0  0  0  0  0  0  0  0  0  0  0  0
   48.2620    8.0989   21.8541 H   0  0  0  0  0  0  0  0  0  0  0  0
   50.8288    6.7990   19.9399 H   0  0  0  0  0  0  0  0  0  0  0  0
   46.3708    5.0901   18.5958 H   0  0  0  0  0  0  0  0  0  0  0  0
   46.5410    7.0862   19.9744 H   0  0  0  0  0  0  0  0  0  0  0  0
   45.2947   11.1091   20.5511 H   0  0  0  0  0  0  0  0  0  0  0  0
   46.3422   12.6277   18.9031 H   0  0  0  0  0  0  0  0  0  0  0  0
   53.0110    9.9000   19.1646 H   0  0  0  0  0  0  0  0  0  0  0  0
   53.8869    9.8171   17.6314 H   0  0  0  0  0  0  0  0  0  0  0  0
   52.4619    8.7943   17.8445 H   0  0  0  0  0  0  0  0  0  0  0  0
   52.7583    4.7355   17.5913 H   0  0  0  0  0  0  0  0  0  0  0  0
   51.8761    6.2680   17.6247 H   0  0  0  0  0  0  0  0  0  0  0  0
   52.5463    5.5552   19.1420 H   0  0  0  0  0  0  0  0  0  0  0  0
   50.8138   14.4768   15.3114 H   0  0  0  0  0  0  0  0  0  0  0  0
   49.2523   13.6608   15.4531 H   0  0  0  0  0  0  0  0  0  0  0  0
   49.8650   14.7232   16.7816 H   0  0  0  0  0  0  0  0  0  0  0  0
   46.6466    3.6893   16.7636 H   0  0  0  0  0  0  0  0  0  0  0  0
   47.4681    2.1257   16.8063 H   0  0  0  0  0  0  0  0  0  0  0  0
   46.7603    2.7469   18.3023 H   0  0  0  0  0  0  0  0  0  0  0  0
   50.5056   10.3947   17.2031 H   0  0  0  0  0  0  0  0  0  0  0  0
   52.3354    8.0353   18.5838 H   0  0  0  0  0  0  0  0  0  0  0  0
   48.0963   10.9604   17.1257 H   0  0  0  0  0  0  0  0  0  0  0  0
   48.9473    9.2014   15.3631 H   0  0  0  0  0  0  0  0  0  0  0  0
   46.5083    9.6778   18.7718 H   0  0  0  0  0  0  0  0  0  0  0  0
   46.8760    8.9532   17.2083 H   0  0  0  0  0  0  0  0  0  0  0  0
   50.2414    9.1353   20.7311 H   0  0  0  0  0  0  0  0  0  0  0  0
   51.6778    9.7151   19.9036 H   0  0  0  0  0  0  0  0  0  0  0  0
   50.3218    7.2740   14.8838 H   0  0  0  0  0  0  0  0  0  0  0  0
   52.4258    7.6110   16.3997 H   0  0  0  0  0  0  0  0  0  0  0  0
   50.0294   11.4691   20.7005 H   0  0  0  0  0  0  0  0  0  0  0  0
   50.6588   11.6396   19.0708 H   0  0  0  0  0  0  0  0  0  0  0  0
   45.8872    7.0530   19.1938 H   0  0  0  0  0  0  0  0  0  0  0  0
   46.8293    4.9260   20.0140 H   0  0  0  0  0  0  0  0  0  0  0  0
   48.7222    3.7213   20.3431 H   0  0  0  0  0  0  0  0  0  0  0  0
   51.2552    5.4424   17.4865 H   0  0  0  0  0  0  0  0  0  0  0  0
   48.6692   12.9958   18.3639 H   0  0  0  0  0  0  0  0  0  0  0  0
   47.0572   12.3844   18.8005 H   0  0  0  0  0  0  0  0  0  0  0  0
   48.1645   12.8956   20.0655 H   0  0  0  0  0  0  0  0  0  0  0  0
   49.2565   11.3306   19.4231 H   0  0  0  0  0  0  0  0  0  0  0  0
   46.6364    9.3695   19.4449 H   0  0  0  0  0  0  0  0  0  0  0  0
   51.6318   11.1505   18.5794 H   0  0  0  0  0  0  0  0  0  0  0  0
   51.1836   10.1537   20.9427 H   0  0  0  0  0  0  0  0  0  0  0  0
   52.0510    9.1809   16.8854 H   0  0  0  0  0  0  0  0  0  0  0  0
   52.3355    8.9727   18.6118 H   0  0  0  0  0  0  0  0  0  0  0  0
   47.3857    9.3368   16.8794 H   0  0  0  0  0  0  0  0  0  0  0  0
   47.5156   10.9168   17.6406 H   0  0  0  0  0  0  0  0  0  0  0  0
   49.7070    8.9505   22.4405 H   0  0  0  0  0  0  0  0  0  0  0  0
   47.3242    9.6948   21.5609 H   0  0  0  0  0  0  0  0  0  0  0  0
   48.7293   11.0015   15.5499 H   0  0  0  0  0  0  0  0  0  0  0  0
   49.5456    9.5065   15.8558 H   0  0  0  0  0  0  0  0  0  0  0  0
   52.0748    6.4326   17.3039 H   0  0  0  0  0  0  0  0  0  0  0  0
   50.5603    4.5401   17.6321 H   0  0  0  0  0  0  0  0  0  0  0  0
   49.2037   12.7603   17.7236 H   0  0  0  0  0  0  0  0  0  0  0  0
   49.8742   13.0025   16.1027 H   0  0  0  0  0  0  0  0  0  0  0  0
   50.9375   13.0690   17.4941 H   0  0  0  0  0  0  0  0  0  0  0  0
   47.5309    7.0042   21.1048 H   0  0  0  0  0  0  0  0  0  0  0  0
   48.5728    3.2619   17.3172 H   0  0  0  0  0  0  0  0  0  0  0  0
   47.5320    2.7614   18.6561 H   0  0  0  0  0  0  0  0  0  0  0  0
   49.2283    3.1238   18.9958 H   0  0  0  0  0  0  0  0  0  0  0  0
  2  1  1  0
  3  1  2  0
  4  1  1  0
  5  3  1  0
  6  7  1  0
  7  4  2  0
  8  2  2  0
  9 12  2  0
 10  2  1  0
 11 14  2  0
 12 13  1  0
 13 10  1  0
 14 15  1  0
 15 13  2  0
 16 21  2  0
 17  5  1  0
 18  6  1  0
 19  9  1  0
 20 11  1  0
 21  4  1  0
 22 17  1  0
 23 19  1  0
 24 18  1  0
 25 20  1  0
 16  8  1  0
  6  5  2  0
 11  9  1  0
 27 26  1  0
 28 26  1  0
 29 27  2  0
 30 26  1  0
 30 31  1  0
 32 28  1  0
 33 27  1  0
 28 34  1  0
 32 35  1  0
 36 41  1  0
 26 37  1  6
 38 39  1  0
 39 30  1  0
 40 29  1  0
 41 37  1  0
 42 33  2  0
 43 42  1  0
 44 40  1  0
 39 45  1  0
 46 36  1  0
 29 31  1  0
 32 36  1  0
 38 34  2  0
 35 33  1  0
 43 40  2  0
 48 47  1  0
 49 47  1  0
 50 48  2  0
 51 47  1  0
 52 51  1  0
 53 49  1  0
 54 62  1  0
 55 48  1  0
 49 56  1  0
 53 57  1  0
 47 58  1  1
 59 60  1  0
 60 51  1  0
 61 50  1  0
 62 58  1  0
 63 55  2  0
 64 63  1  0
 65 54  1  0
 60 66  1  0
 67 61  1  0
 68 67  1  0
 52 50  1  0
 53 54  1  0
 59 56  2  0
 57 55  1  0
 64 61  2  0
  3 69  1  0
  7 70  1  0
 10 71  1  0
 10 72  1  0
 12 73  1  0
 14 74  1  0
 15 75  1  0
 16 76  1  0
 21 77  1  0
 22 78  1  0
 22 79  1  0
 22 80  1  0
 23 81  1  0
 23 82  1  0
 23 83  1  0
 24 84  1  0
 24 85  1  0
 24 86  1  0
 25 87  1  0
 25 88  1  0
 25 89  1  0
 28 90  1  6
 30 91  1  6
 32 92  1  1
 34 93  1  0
 35 94  1  0
 35 95  1  0
 37 96  1  0
 37 97  1  0
 38 98  1  0
 39 99  1  6
 41100  1  0
 41101  1  0
 42102  1  0
 43103  1  0
 44104  1  0
 45105  1  0
 46106  1  0
 46107  1  0
 46108  1  0
 49109  1  6
 51110  1  1
 53111  1  6
 56112  1  0
 57113  1  0
 57114  1  0
 58115  1  0
 58116  1  0
 59117  1  0
 60118  1  6
 62119  1  0
 62120  1  0
 63121  1  0
 64122  1  0
 65123  1  0
 65124  1  0
 65125  1  0
 66126  1  0
 68127  1  0
 68128  1  0
 68129  1  0
M  END
> <Uni-Dock RESULT> 
ENERGY=   -5.590  LOWER_BOUND=    1.969  UPPER_BOUND=    5.600
INTER + INTRA:          -5.590
INTER:                  -5.590
INTRA:                   0.000
UNBOUND:                 0.000

$$$$
