
     RDKit          3D

129139  0  0  0  0  0  0  0  0999 V2000
   48.7694   12.7036   19.9662 C   0  0  0  0  0  0  0  0  0  0  0  0
   47.7693   12.0317   19.2173 C   0  0  0  0  0  0  0  0  0  0  0  0
   48.8783   12.6922   21.3793 C   0  0  0  0  0  0  0  0  0  0  0  0
   49.7251   13.4443   19.2381 C   0  0  0  0  0  0  0  0  0  0  0  0
   49.8918   13.3898   22.0485 C   0  0  0  0  0  0  0  0  0  0  0  0
   50.8379   14.1155   21.3074 C   0  0  0  0  0  0  0  0  0  0  0  0
   50.7466   14.1368   19.9126 C   0  0  0  0  0  0  0  0  0  0  0  0
   47.7011   12.0806   17.8569 N   0  0  0  0  0  0  0  0  0  0  0  0
   47.5143    8.0412   21.9038 C   0  0  0  0  0  0  0  0  0  0  0  0
   46.6956   11.1802   19.8688 C   0  0  0  0  0  0  0  0  0  0  0  0
   47.9321    7.1523   20.8960 C   0  0  0  0  0  0  0  0  0  0  0  0
   47.1059    9.3393   21.5685 C   0  0  0  0  0  0  0  0  0  0  0  0
   47.1467    9.7826   20.2380 C   0  0  0  0  0  0  0  0  0  0  0  0
   47.9697    7.5921   19.5701 C   0  0  0  0  0  0  0  0  0  0  0  0
   47.5812    8.8947   19.2456 C   0  0  0  0  0  0  0  0  0  0  0  0
   48.6342   12.7992   17.2079 C   0  0  0  0  0  0  0  0  0  0  0  0
   50.0431   13.4204   23.4130 O   0  0  0  0  0  0  0  0  0  0  0  0
   51.8010   14.7698   22.0345 O   0  0  0  0  0  0  0  0  0  0  0  0
   47.4834    7.5481   23.1866 O   0  0  0  0  0  0  0  0  0  0  0  0
   48.2961    5.8954   21.3097 O   0  0  0  0  0  0  0  0  0  0  0  0
   49.6496   13.4856   17.8430 C   0  0  0  0  0  0  0  0  0  0  0  0
   49.0581   12.7766   24.2069 C   0  0  0  0  0  0  0  0  0  0  0  0
   47.6786    8.4992   24.2245 C   0  0  0  0  0  0  0  0  0  0  0  0
   52.7935   15.4934   21.3219 C   0  0  0  0  0  0  0  0  0  0  0  0
   48.5866    4.9355   20.3040 C   0  0  0  0  0  0  0  0  0  0  0  0
   49.7135   10.8654   21.2907 C   0  0  2  0  0  0  0  0  0  0  0  0
   48.9825   11.6737   20.2600 C   0  0  0  0  0  0  0  0  0  0  0  0
   48.6770   10.2547   22.2434 C   0  0  2  0  0  0  0  0  0  0  0  0
   49.6935   12.8058   19.9377 C   0  0  0  0  0  0  0  0  0  0  0  0
   50.6129   12.0083   21.8183 C   0  0  1  0  0  0  0  0  0  0  0  0
   50.8031   12.9807   20.7224 O   0  0  0  0  0  0  0  0  0  0  0  0
   47.7017    9.4183   21.3397 C   0  0  1  0  0  0  0  0  0  0  0  0
   47.7197   11.4267   19.7458 C   0  0  0  0  0  0  0  0  0  0  0  0
   48.0139   11.2927   23.1169 C   0  0  0  0  0  0  0  0  0  0  0  0
   46.8937   10.3227   20.3539 C   0  0  0  0  0  0  0  0  0  0  0  0
   48.4155    8.4106   20.5082 N   0  0  0  0  0  0  0  0  0  0  0  0
   50.5213    9.7449   20.5894 C   0  0  0  0  0  0  0  0  0  0  0  0
   48.6553   12.4122   23.4862 C   0  0  0  0  0  0  0  0  0  0  0  0
   50.0725   12.7186   23.0971 C   0  0  2  0  0  0  0  0  0  0  0  0
   49.2343   13.6775   18.9763 C   0  0  0  0  0  0  0  0  0  0  0  0
   49.8606    8.3623   20.7169 C   0  0  0  0  0  0  0  0  0  0  0  0
   47.2345   12.3112   18.7759 C   0  0  0  0  0  0  0  0  0  0  0  0
   48.0034   13.4230   18.3758 C   0  0  0  0  0  0  0  0  0  0  0  0
   49.9386   14.7884   18.6308 O   0  0  0  0  0  0  0  0  0  0  0  0
   50.2096   14.1353   23.0195 O   0  0  0  0  0  0  0  0  0  0  0  0
   47.8122    7.0852   20.6149 C   0  0  0  0  0  0  0  0  0  0  0  0
   49.5174   11.4297   20.1912 C   0  0  2  0  0  0  0  0  0  0  0  0
   48.8547   10.3567   21.0055 C   0  0  0  0  0  0  0  0  0  0  0  0
   48.9778   12.7855   20.6677 C   0  0  2  0  0  0  0  0  0  0  0  0
   48.5840    9.2495   20.2270 C   0  0  0  0  0  0  0  0  0  0  0  0
   49.0708   10.9156   18.8031 C   0  0  1  0  0  0  0  0  0  0  0  0
   48.8871    9.4634   18.9056 O   0  0  0  0  0  0  0  0  0  0  0  0
   49.3082   12.8676   22.1999 C   0  0  2  0  0  0  0  0  0  0  0  0
   50.7586   12.6934   22.4843 N   0  0  0  0  0  0  0  0  0  0  0  0
   48.4612   10.4481   22.3289 C   0  0  0  0  0  0  0  0  0  0  0  0
   47.5204   12.9794   20.3171 C   0  0  0  0  0  0  0  0  0  0  0  0
   48.5484   11.7799   23.0259 C   0  0  0  0  0  0  0  0  0  0  0  0
   51.0502   11.3524   20.3961 C   0  0  0  0  0  0  0  0  0  0  0  0
   46.9896   12.4302   19.2127 C   0  0  0  0  0  0  0  0  0  0  0  0
   47.8110   11.6373   18.2282 C   0  0  2  0  0  0  0  0  0  0  0  0
   48.0211    8.1067   20.7690 C   0  0  0  0  0  0  0  0  0  0  0  0
   51.5878   12.4728   21.3007 C   0  0  0  0  0  0  0  0  0  0  0  0
   47.8802    9.3151   22.8991 C   0  0  0  0  0  0  0  0  0  0  0  0
   47.6833    8.1466   22.1304 C   0  0  0  0  0  0  0  0  0  0  0  0
   51.2878   13.7746   23.3118 C   0  0  0  0  0  0  0  0  0  0  0  0
   46.9783   10.7440   17.4967 O   0  0  0  0  0  0  0  0  0  0  0  0
   47.8282    7.0536   19.9231 O   0  0  0  0  0  0  0  0  0  0  0  0
   47.2657    5.8744   20.4780 C   0  0  0  0  0  0  0  0  0  0  0  0
   48.1549   12.1254   21.9516 H   0  0  0  0  0  0  0  0  0  0  0  0
   51.4664   14.6956   19.3227 H   0  0  0  0  0  0  0  0  0  0  0  0
   45.8471   11.0846   19.1770 H   0  0  0  0  0  0  0  0  0  0  0  0
   46.2843   11.7064   20.7386 H   0  0  0  0  0  0  0  0  0  0  0  0
   46.7320   10.0107   22.3347 H   0  0  0  0  0  0  0  0  0  0  0  0
   48.2991    6.9480   18.7621 H   0  0  0  0  0  0  0  0  0  0  0  0
   47.6151    9.2143   18.2042 H   0  0  0  0  0  0  0  0  0  0  0  0
   48.5426   12.8098   16.1255 H   0  0  0  0  0  0  0  0  0  0  0  0
   50.3674   14.0438   17.2508 H   0  0  0  0  0  0  0  0  0  0  0  0
   49.3137   12.9430   25.2578 H   0  0  0  0  0  0  0  0  0  0  0  0
   49.0575   11.6962   24.0324 H   0  0  0  0  0  0  0  0  0  0  0  0
   48.0660   13.2066   24.0342 H   0  0  0  0  0  0  0  0  0  0  0  0
   46.7637    9.0726   24.4020 H   0  0  0  0  0  0  0  0  0  0  0  0
   48.5239    9.1636   24.0121 H   0  0  0  0  0  0  0  0  0  0  0  0
   47.9098    7.9496   25.1416 H   0  0  0  0  0  0  0  0  0  0  0  0
   52.3484   16.3143   20.7500 H   0  0  0  0  0  0  0  0  0  0  0  0
   53.3789   14.8305   20.6761 H   0  0  0  0  0  0  0  0  0  0  0  0
   53.4779   15.9322   22.0543 H   0  0  0  0  0  0  0  0  0  0  0  0
   47.7329    4.7912   19.6332 H   0  0  0  0  0  0  0  0  0  0  0  0
   48.7833    3.9805   20.8006 H   0  0  0  0  0  0  0  0  0  0  0  0
   49.4873    5.2108   19.7457 H   0  0  0  0  0  0  0  0  0  0  0  0
   49.1711    9.5683   22.9461 H   0  0  0  0  0  0  0  0  0  0  0  0
   51.6170   11.6363   22.0576 H   0  0  0  0  0  0  0  0  0  0  0  0
   46.9821    8.9140   21.9998 H   0  0  0  0  0  0  0  0  0  0  0  0
   47.0077   11.1024   23.4827 H   0  0  0  0  0  0  0  0  0  0  0  0
   46.0723   10.7907   20.9121 H   0  0  0  0  0  0  0  0  0  0  0  0
   46.4347    9.7190   19.5611 H   0  0  0  0  0  0  0  0  0  0  0  0
   50.6799    9.9720   19.5267 H   0  0  0  0  0  0  0  0  0  0  0  0
   51.5191    9.6620   21.0376 H   0  0  0  0  0  0  0  0  0  0  0  0
   48.1619   13.1209   24.1475 H   0  0  0  0  0  0  0  0  0  0  0  0
   50.6927   12.4007   23.9447 H   0  0  0  0  0  0  0  0  0  0  0  0
   50.3238    7.6976   19.9767 H   0  0  0  0  0  0  0  0  0  0  0  0
   50.0943    7.9351   21.7013 H   0  0  0  0  0  0  0  0  0  0  0  0
   46.2491   12.1613   18.3410 H   0  0  0  0  0  0  0  0  0  0  0  0
   47.6178   14.1068   17.6244 H   0  0  0  0  0  0  0  0  0  0  0  0
   50.7790   14.7397   19.1237 H   0  0  0  0  0  0  0  0  0  0  0  0
   50.0509   14.3717   22.0868 H   0  0  0  0  0  0  0  0  0  0  0  0
   48.2852    6.3872   19.9154 H   0  0  0  0  0  0  0  0  0  0  0  0
   46.7501    7.1223   20.3492 H   0  0  0  0  0  0  0  0  0  0  0  0
   47.9034    6.6753   21.6266 H   0  0  0  0  0  0  0  0  0  0  0  0
   49.5059   13.6030   20.1557 H   0  0  0  0  0  0  0  0  0  0  0  0
   49.8710   11.0516   18.0644 H   0  0  0  0  0  0  0  0  0  0  0  0
   48.9757   13.8504   22.5623 H   0  0  0  0  0  0  0  0  0  0  0  0
   46.9048   13.5978   20.9650 H   0  0  0  0  0  0  0  0  0  0  0  0
   47.5230   12.1343   23.1949 H   0  0  0  0  0  0  0  0  0  0  0  0
   49.0058   11.6548   24.0155 H   0  0  0  0  0  0  0  0  0  0  0  0
   51.5671   11.4469   19.4329 H   0  0  0  0  0  0  0  0  0  0  0  0
   51.3512   10.3808   20.8098 H   0  0  0  0  0  0  0  0  0  0  0  0
   45.9449   12.6187   18.9836 H   0  0  0  0  0  0  0  0  0  0  0  0
   48.1701   12.3731   17.4956 H   0  0  0  0  0  0  0  0  0  0  0  0
   52.6065   12.2018   21.6057 H   0  0  0  0  0  0  0  0  0  0  0  0
   51.6789   13.3982   20.7159 H   0  0  0  0  0  0  0  0  0  0  0  0
   47.5535    9.3314   23.9360 H   0  0  0  0  0  0  0  0  0  0  0  0
   47.2280    7.2938   22.6235 H   0  0  0  0  0  0  0  0  0  0  0  0
   51.2362   14.7425   22.8006 H   0  0  0  0  0  0  0  0  0  0  0  0
   52.3318   13.5819   23.5815 H   0  0  0  0  0  0  0  0  0  0  0  0
   50.7299   13.8484   24.2518 H   0  0  0  0  0  0  0  0  0  0  0  0
   46.1374   11.1870   17.3059 H   0  0  0  0  0  0  0  0  0  0  0  0
   46.2541    6.0581   20.8549 H   0  0  0  0  0  0  0  0  0  0  0  0
   47.9097    5.4591   21.2606 H   0  0  0  0  0  0  0  0  0  0  0  0
   47.1925    5.1302   19.6791 H   0  0  0  0  0  0  0  0  0  0  0  0
  2  1  1  0
  3  1  2  0
  4  1  1  0
  5  3  1  0
  6  7  1  0
  7  4  2  0
  8  2  2  0
  9 12  2  0
 10  2  1  0
 11 14  2  0
 12 13  1  0
 13 10  1  0
 14 15  1  0
 15 13  2  0
 16 21  2  0
 17  5  1  0
 18  6  1  0
 19  9  1  0
 20 11  1  0
 21  4  1  0
 22 17  1  0
 23 19  1  0
 24 18  1  0
 25 20  1  0
 16  8  1  0
  6  5  2  0
 11  9  1  0
 27 26  1  0
 28 26  1  0
 29 27  2  0
 30 26  1  0
 30 31  1  0
 32 28  1  0
 33 27  1  0
 28 34  1  0
 32 35  1  0
 36 41  1  0
 26 37  1  1
 38 39  1  0
 39 30  1  0
 40 29  1  0
 41 37  1  0
 42 33  2  0
 43 42  1  0
 44 40  1  0
 39 45  1  0
 46 36  1  0
 29 31  1  0
 32 36  1  0
 38 34  2  0
 35 33  1  0
 43 40  2  0
 48 47  1  0
 49 47  1  0
 50 48  2  0
 51 47  1  0
 52 51  1  0
 53 49  1  0
 54 62  1  0
 55 48  1  0
 49 56  1  0
 53 57  1  0
 47 58  1  1
 59 60  1  0
 60 51  1  0
 61 50  1  0
 62 58  1  0
 63 55  2  0
 64 63  1  0
 65 54  1  0
 60 66  1  0
 67 61  1  0
 68 67  1  0
 52 50  1  0
 53 54  1  0
 59 56  2  0
 57 55  1  0
 64 61  2  0
  3 69  1  0
  7 70  1  0
 10 71  1  0
 10 72  1  0
 12 73  1  0
 14 74  1  0
 15 75  1  0
 16 76  1  0
 21 77  1  0
 22 78  1  0
 22 79  1  0
 22 80  1  0
 23 81  1  0
 23 82  1  0
 23 83  1  0
 24 84  1  0
 24 85  1  0
 24 86  1  0
 25 87  1  0
 25 88  1  0
 25 89  1  0
 28 90  1  1
 30 91  1  1
 32 92  1  6
 34 93  1  0
 35 94  1  0
 35 95  1  0
 37 96  1  0
 37 97  1  0
 38 98  1  0
 39 99  1  1
 41100  1  0
 41101  1  0
 42102  1  0
 43103  1  0
 44104  1  0
 45105  1  0
 46106  1  0
 46107  1  0
 46108  1  0
 49109  1  1
 51110  1  1
 53111  1  6
 56112  1  0
 57113  1  0
 57114  1  0
 58115  1  0
 58116  1  0
 59117  1  0
 60118  1  1
 62119  1  0
 62120  1  0
 63121  1  0
 64122  1  0
 65123  1  0
 65124  1  0
 65125  1  0
 66126  1  0
 68127  1  0
 68128  1  0
 68129  1  0
M  END
> <Uni-Dock RESULT> 
ENERGY=   -7.587  LOWER_BOUND=    0.000  UPPER_BOUND=    0.000
INTER + INTRA:          -7.587
INTER:                  -7.587
INTRA:                   0.000
UNBOUND:                 0.000

$$$$

     RDKit          3D

129139  0  0  0  0  0  0  0  0999 V2000
   47.8330   11.1614   19.0541 C   0  0  0  0  0  0  0  0  0  0  0  0
   47.4358   11.7143   20.2987 C   0  0  0  0  0  0  0  0  0  0  0  0
   48.1315   11.9073   17.8864 C   0  0  0  0  0  0  0  0  0  0  0  0
   47.9311    9.7554   18.9803 C   0  0  0  0  0  0  0  0  0  0  0  0
   48.5093   11.2866   16.6891 C   0  0  0  0  0  0  0  0  0  0  0  0
   48.6084    9.8872   16.6363 C   0  0  0  0  0  0  0  0  0  0  0  0
   48.3189    9.1356   17.7789 C   0  0  0  0  0  0  0  0  0  0  0  0
   47.1501   10.9531   21.3927 N   0  0  0  0  0  0  0  0  0  0  0  0
   50.3041   15.5842   20.2374 C   0  0  0  0  0  0  0  0  0  0  0  0
   47.3136   13.2095   20.5259 C   0  0  0  0  0  0  0  0  0  0  0  0
   51.0502   15.2387   21.3794 C   0  0  0  0  0  0  0  0  0  0  0  0
   49.0920   14.9339   19.9687 C   0  0  0  0  0  0  0  0  0  0  0  0
   48.6282   13.9075   20.8052 C   0  0  0  0  0  0  0  0  0  0  0  0
   50.5871   14.2188   22.2149 C   0  0  0  0  0  0  0  0  0  0  0  0
   49.3882   13.5600   21.9293 C   0  0  0  0  0  0  0  0  0  0  0  0
   47.2581    9.6181   21.2730 C   0  0  0  0  0  0  0  0  0  0  0  0
   48.8036   11.9557   15.5266 O   0  0  0  0  0  0  0  0  0  0  0  0
   48.9869    9.3542   15.4292 O   0  0  0  0  0  0  0  0  0  0  0  0
   50.8010   16.6046   19.4618 O   0  0  0  0  0  0  0  0  0  0  0  0
   52.2142   15.9385   21.5770 O   0  0  0  0  0  0  0  0  0  0  0  0
   47.6398    8.9830   20.1083 C   0  0  0  0  0  0  0  0  0  0  0  0
   48.6296   13.3644   15.5066 C   0  0  0  0  0  0  0  0  0  0  0  0
   50.4667   16.5574   18.0813 C   0  0  0  0  0  0  0  0  0  0  0  0
   49.1255    7.9438   15.3407 C   0  0  0  0  0  0  0  0  0  0  0  0
   52.9147   15.7110   22.7914 C   0  0  0  0  0  0  0  0  0  0  0  0
   49.9441   12.3430   18.6395 C   0  0  2  0  0  0  0  0  0  0  0  0
   48.7176   11.7612   19.2779 C   0  0  0  0  0  0  0  0  0  0  0  0
   49.7339   13.8557   18.4898 C   0  0  2  0  0  0  0  0  0  0  0  0
   48.4370   10.5228   18.7500 C   0  0  0  0  0  0  0  0  0  0  0  0
   49.9212   11.4681   17.3637 C   0  0  1  0  0  0  0  0  0  0  0  0
   49.2500   10.1948   17.6969 O   0  0  0  0  0  0  0  0  0  0  0  0
   49.4412   14.3949   19.9359 C   0  0  1  0  0  0  0  0  0  0  0  0
   47.8808   12.3770   20.1949 C   0  0  0  0  0  0  0  0  0  0  0  0
   48.6891   14.1934   17.4534 C   0  0  0  0  0  0  0  0  0  0  0  0
   48.1012   13.8336   20.5119 C   0  0  0  0  0  0  0  0  0  0  0  0
   50.5094   14.0335   20.9078 N   0  0  0  0  0  0  0  0  0  0  0  0
   51.1754   12.0599   19.5359 C   0  0  0  0  0  0  0  0  0  0  0  0
   48.4693   13.3992   16.3940 C   0  0  0  0  0  0  0  0  0  0  0  0
   49.2446   12.1409   16.1303 C   0  0  2  0  0  0  0  0  0  0  0  0
   47.3776    9.7794   19.2191 C   0  0  0  0  0  0  0  0  0  0  0  0
   51.6302   13.2931   20.3337 C   0  0  0  0  0  0  0  0  0  0  0  0
   46.7926   11.6376   20.6721 C   0  0  0  0  0  0  0  0  0  0  0  0
   46.5563   10.3304   20.2000 C   0  0  0  0  0  0  0  0  0  0  0  0
   47.1028    8.5435   18.7227 O   0  0  0  0  0  0  0  0  0  0  0  0
   48.3913   11.2385   15.4307 O   0  0  0  0  0  0  0  0  0  0  0  0
   50.9650   15.1885   21.6763 C   0  0  0  0  0  0  0  0  0  0  0  0
   49.2609   11.5274   19.2984 C   0  0  2  0  0  0  0  0  0  0  0  0
   49.6112   12.9846   19.3845 C   0  0  0  0  0  0  0  0  0  0  0  0
   48.0358   11.3892   18.3838 C   0  0  2  0  0  0  0  0  0  0  0  0
   50.0329   13.3114   20.6576 C   0  0  0  0  0  0  0  0  0  0  0  0
   49.0684   11.2900   20.8140 C   0  0  1  0  0  0  0  0  0  0  0  0
   49.9149   12.2547   21.5255 O   0  0  0  0  0  0  0  0  0  0  0  0
   48.4520   12.0161   17.0065 C   0  0  2  0  0  0  0  0  0  0  0  0
   49.6718   11.3845   16.4337 N   0  0  0  0  0  0  0  0  0  0  0  0
   49.4603   13.9311   18.3865 C   0  0  0  0  0  0  0  0  0  0  0  0
   46.7880   11.9766   19.0022 C   0  0  0  0  0  0  0  0  0  0  0  0
   48.7428   13.5476   17.1196 C   0  0  0  0  0  0  0  0  0  0  0  0
   50.4648   10.7469   18.7159 C   0  0  0  0  0  0  0  0  0  0  0  0
   46.5996   11.9719   20.3316 C   0  0  0  0  0  0  0  0  0  0  0  0
   47.5807   11.3399   21.2858 C   0  0  2  0  0  0  0  0  0  0  0  0
   50.4618   14.5902   20.9695 C   0  0  0  0  0  0  0  0  0  0  0  0
   50.2484   10.3213   17.2549 C   0  0  0  0  0  0  0  0  0  0  0  0
   49.8737   15.2317   18.6760 C   0  0  0  0  0  0  0  0  0  0  0  0
   50.3916   15.5523   19.9504 C   0  0  0  0  0  0  0  0  0  0  0  0
   49.4639   10.9415   15.0573 C   0  0  0  0  0  0  0  0  0  0  0  0
   47.4560   11.9211   22.5793 O   0  0  0  0  0  0  0  0  0  0  0  0
   50.8944   14.8012   22.2463 O   0  0  0  0  0  0  0  0  0  0  0  0
   51.3497   16.1070   22.5662 C   0  0  0  0  0  0  0  0  0  0  0  0
   48.0644   12.9870   17.9283 H   0  0  0  0  0  0  0  0  0  0  0  0
   48.3860    8.0524   17.7563 H   0  0  0  0  0  0  0  0  0  0  0  0
   46.6528   13.3872   21.3859 H   0  0  0  0  0  0  0  0  0  0  0  0
   46.7928   13.6705   19.6781 H   0  0  0  0  0  0  0  0  0  0  0  0
   48.4864   15.2335   19.1194 H   0  0  0  0  0  0  0  0  0  0  0  0
   51.1357   13.9077   23.0973 H   0  0  0  0  0  0  0  0  0  0  0  0
   49.0449   12.7703   22.5974 H   0  0  0  0  0  0  0  0  0  0  0  0
   47.0223    9.0508   22.1689 H   0  0  0  0  0  0  0  0  0  0  0  0
   47.7054    7.9000   20.0885 H   0  0  0  0  0  0  0  0  0  0  0  0
   48.8630   13.7165   14.4972 H   0  0  0  0  0  0  0  0  0  0  0  0
   49.3214   13.8556   16.1979 H   0  0  0  0  0  0  0  0  0  0  0  0
   47.5918   13.6390   15.7225 H   0  0  0  0  0  0  0  0  0  0  0  0
   49.4424   16.9063   17.9184 H   0  0  0  0  0  0  0  0  0  0  0  0
   50.6118   15.5550   17.6628 H   0  0  0  0  0  0  0  0  0  0  0  0
   51.1384   17.2394   17.5518 H   0  0  0  0  0  0  0  0  0  0  0  0
   48.1685    7.4417   15.5169 H   0  0  0  0  0  0  0  0  0  0  0  0
   49.8982    7.5786   16.0254 H   0  0  0  0  0  0  0  0  0  0  0  0
   49.4441    7.7024   14.3220 H   0  0  0  0  0  0  0  0  0  0  0  0
   52.2856   15.9305   23.6608 H   0  0  0  0  0  0  0  0  0  0  0  0
   53.7678   16.3957   22.8182 H   0  0  0  0  0  0  0  0  0  0  0  0
   53.3073   14.6899   22.8339 H   0  0  0  0  0  0  0  0  0  0  0  0
   50.6570   14.3288   18.1248 H   0  0  0  0  0  0  0  0  0  0  0  0
   50.9391   11.1924   17.0610 H   0  0  0  0  0  0  0  0  0  0  0  0
   49.3487   15.4883   19.8739 H   0  0  0  0  0  0  0  0  0  0  0  0
   48.1340   15.1230   17.5544 H   0  0  0  0  0  0  0  0  0  0  0  0
   47.2724   14.3998   20.0673 H   0  0  0  0  0  0  0  0  0  0  0  0
   48.0483   13.9924   21.5962 H   0  0  0  0  0  0  0  0  0  0  0  0
   50.9816   11.2321   20.2311 H   0  0  0  0  0  0  0  0  0  0  0  0
   52.0277   11.7492   18.9191 H   0  0  0  0  0  0  0  0  0  0  0  0
   47.7359   13.6917   15.6461 H   0  0  0  0  0  0  0  0  0  0  0  0
   50.0365   12.4182   15.4231 H   0  0  0  0  0  0  0  0  0  0  0  0
   52.3006   12.9500   21.1320 H   0  0  0  0  0  0  0  0  0  0  0  0
   52.2325   13.9451   19.6868 H   0  0  0  0  0  0  0  0  0  0  0  0
   46.1062   12.0754   21.3930 H   0  0  0  0  0  0  0  0  0  0  0  0
   45.7071    9.7644   20.5734 H   0  0  0  0  0  0  0  0  0  0  0  0
   47.8238    8.3362   18.0992 H   0  0  0  0  0  0  0  0  0  0  0  0
   47.9787   10.6744   16.1107 H   0  0  0  0  0  0  0  0  0  0  0  0
   51.6707   14.8808   22.4557 H   0  0  0  0  0  0  0  0  0  0  0  0
   50.1234   15.6677   22.1882 H   0  0  0  0  0  0  0  0  0  0  0  0
   51.4556   15.9338   21.0409 H   0  0  0  0  0  0  0  0  0  0  0  0
   47.8023   10.3266   18.2238 H   0  0  0  0  0  0  0  0  0  0  0  0
   49.4532   10.3037   21.1031 H   0  0  0  0  0  0  0  0  0  0  0  0
   47.6094   11.8897   16.3124 H   0  0  0  0  0  0  0  0  0  0  0  0
   46.0231   12.3858   18.3474 H   0  0  0  0  0  0  0  0  0  0  0  0
   47.7820   14.0789   17.1080 H   0  0  0  0  0  0  0  0  0  0  0  0
   49.3086   13.9003   16.2480 H   0  0  0  0  0  0  0  0  0  0  0  0
   50.6362    9.8288   19.2917 H   0  0  0  0  0  0  0  0  0  0  0  0
   51.3929   11.3294   18.7870 H   0  0  0  0  0  0  0  0  0  0  0  0
   45.6755   12.3786   20.7317 H   0  0  0  0  0  0  0  0  0  0  0  0
   47.2449   10.2996   21.3958 H   0  0  0  0  0  0  0  0  0  0  0  0
   51.2197   10.0190   16.8434 H   0  0  0  0  0  0  0  0  0  0  0  0
   49.6124    9.4261   17.2288 H   0  0  0  0  0  0  0  0  0  0  0  0
   49.7787   16.0148   17.9277 H   0  0  0  0  0  0  0  0  0  0  0  0
   50.6990   16.5788   20.1221 H   0  0  0  0  0  0  0  0  0  0  0  0
   48.7062   10.1525   14.9926 H   0  0  0  0  0  0  0  0  0  0  0  0
   50.3964   10.5607   14.6269 H   0  0  0  0  0  0  0  0  0  0  0  0
   49.1471   11.7795   14.4268 H   0  0  0  0  0  0  0  0  0  0  0  0
   46.5176   12.0856   22.7582 H   0  0  0  0  0  0  0  0  0  0  0  0
   50.5436   16.8419   22.4694 H   0  0  0  0  0  0  0  0  0  0  0  0
   52.2142   16.3857   21.9539 H   0  0  0  0  0  0  0  0  0  0  0  0
   51.6716   16.1027   23.6119 H   0  0  0  0  0  0  0  0  0  0  0  0
  2  1  1  0
  3  1  2  0
  4  1  1  0
  5  3  1  0
  6  7  1  0
  7  4  2  0
  8  2  2  0
  9 12  2  0
 10  2  1  0
 11 14  2  0
 12 13  1  0
 13 10  1  0
 14 15  1  0
 15 13  2  0
 16 21  2  0
 17  5  1  0
 18  6  1  0
 19  9  1  0
 20 11  1  0
 21  4  1  0
 22 17  1  0
 23 19  1  0
 24 18  1  0
 25 20  1  0
 16  8  1  0
  6  5  2  0
 11  9  1  0
 27 26  1  0
 28 26  1  0
 29 27  2  0
 30 26  1  0
 30 31  1  0
 32 28  1  0
 33 27  1  0
 28 34  1  0
 32 35  1  0
 36 41  1  0
 26 37  1  1
 38 39  1  0
 39 30  1  0
 40 29  1  0
 41 37  1  0
 42 33  2  0
 43 42  1  0
 44 40  1  0
 39 45  1  0
 46 36  1  0
 29 31  1  0
 32 36  1  0
 38 34  2  0
 35 33  1  0
 43 40  2  0
 48 47  1  0
 49 47  1  0
 50 48  2  0
 51 47  1  0
 52 51  1  0
 53 49  1  0
 54 62  1  0
 55 48  1  0
 49 56  1  0
 53 57  1  0
 47 58  1  1
 59 60  1  0
 60 51  1  0
 61 50  1  0
 62 58  1  0
 63 55  2  0
 64 63  1  0
 65 54  1  0
 60 66  1  0
 67 61  1  0
 68 67  1  0
 52 50  1  0
 53 54  1  0
 59 56  2  0
 57 55  1  0
 64 61  2  0
  3 69  1  0
  7 70  1  0
 10 71  1  0
 10 72  1  0
 12 73  1  0
 14 74  1  0
 15 75  1  0
 16 76  1  0
 21 77  1  0
 22 78  1  0
 22 79  1  0
 22 80  1  0
 23 81  1  0
 23 82  1  0
 23 83  1  0
 24 84  1  0
 24 85  1  0
 24 86  1  0
 25 87  1  0
 25 88  1  0
 25 89  1  0
 28 90  1  1
 30 91  1  1
 32 92  1  6
 34 93  1  0
 35 94  1  0
 35 95  1  0
 37 96  1  0
 37 97  1  0
 38 98  1  0
 39 99  1  1
 41100  1  0
 41101  1  0
 42102  1  0
 43103  1  0
 44104  1  0
 45105  1  0
 46106  1  0
 46107  1  0
 46108  1  0
 49109  1  1
 51110  1  1
 53111  1  6
 56112  1  0
 57113  1  0
 57114  1  0
 58115  1  0
 58116  1  0
 59117  1  0
 60118  1  1
 62119  1  0
 62120  1  0
 63121  1  0
 64122  1  0
 65123  1  0
 65124  1  0
 65125  1  0
 66126  1  0
 68127  1  0
 68128  1  0
 68129  1  0
M  END
> <Uni-Dock RESULT> 
ENERGY=   -7.454  LOWER_BOUND=    1.732  UPPER_BOUND=    6.194
INTER + INTRA:          -7.454
INTER:                  -7.454
INTRA:                   0.000
UNBOUND:                 0.000

$$$$

     RDKit          3D

129139  0  0  0  0  0  0  0  0999 V2000
   48.4732    8.4042   14.7073 C   0  0  0  0  0  0  0  0  0  0  0  0
   49.2664    9.4527   15.2402 C   0  0  0  0  0  0  0  0  0  0  0  0
   47.3968    8.5734   13.8009 C   0  0  0  0  0  0  0  0  0  0  0  0
   48.7844    7.0916   15.1223 C   0  0  0  0  0  0  0  0  0  0  0  0
   46.6530    7.4862   13.3250 C   0  0  0  0  0  0  0  0  0  0  0  0
   46.9815    6.1869   13.7432 C   0  0  0  0  0  0  0  0  0  0  0  0
   48.0410    6.0012   14.6360 C   0  0  0  0  0  0  0  0  0  0  0  0
   50.2871    9.2397   16.1180 N   0  0  0  0  0  0  0  0  0  0  0  0
   49.4903   12.1798   11.2755 C   0  0  0  0  0  0  0  0  0  0  0  0
   49.0583   10.9071   14.8614 C   0  0  0  0  0  0  0  0  0  0  0  0
   50.8856   12.0977   11.1129 C   0  0  0  0  0  0  0  0  0  0  0  0
   48.9028   11.8037   12.4910 C   0  0  0  0  0  0  0  0  0  0  0  0
   49.6866   11.3040   13.5419 C   0  0  0  0  0  0  0  0  0  0  0  0
   51.6673   11.6032   12.1604 C   0  0  0  0  0  0  0  0  0  0  0  0
   51.0725   11.2100   13.3623 C   0  0  0  0  0  0  0  0  0  0  0  0
   50.5454    7.9716   16.4834 C   0  0  0  0  0  0  0  0  0  0  0  0
   45.5977    7.5894   12.4524 O   0  0  0  0  0  0  0  0  0  0  0  0
   46.2086    5.1746   13.2310 O   0  0  0  0  0  0  0  0  0  0  0  0
   48.7752   12.6880   10.2171 O   0  0  0  0  0  0  0  0  0  0  0  0
   51.3790   12.5044    9.8984 O   0  0  0  0  0  0  0  0  0  0  0  0
   49.8353    6.8824   16.0198 C   0  0  0  0  0  0  0  0  0  0  0  0
   45.1719    8.8894   12.0732 C   0  0  0  0  0  0  0  0  0  0  0  0
   47.4365   12.2277   10.0915 C   0  0  0  0  0  0  0  0  0  0  0  0
   46.5250    3.8425   13.6076 C   0  0  0  0  0  0  0  0  0  0  0  0
   52.7906   12.5659    9.7545 C   0  0  0  0  0  0  0  0  0  0  0  0
   48.7111    8.7821   12.2938 C   0  0  2  0  0  0  0  0  0  0  0  0
   48.8964    8.8010   13.7822 C   0  0  0  0  0  0  0  0  0  0  0  0
   48.1317   10.1373   11.8664 C   0  0  2  0  0  0  0  0  0  0  0  0
   48.6112    7.5688   14.3222 C   0  0  0  0  0  0  0  0  0  0  0  0
   47.7916    7.5392   12.2376 C   0  0  1  0  0  0  0  0  0  0  0  0
   48.1062    6.6871   13.4028 O   0  0  0  0  0  0  0  0  0  0  0  0
   49.1484   11.2205   12.3767 C   0  0  1  0  0  0  0  0  0  0  0  0
   49.2036    9.8973   14.5722 C   0  0  0  0  0  0  0  0  0  0  0  0
   46.7058   10.3261   12.3259 C   0  0  0  0  0  0  0  0  0  0  0  0
   49.2267   11.2636   13.9370 C   0  0  0  0  0  0  0  0  0  0  0  0
   50.5332   10.9812   11.8853 N   0  0  0  0  0  0  0  0  0  0  0  0
   50.0792    8.5445   11.6070 C   0  0  0  0  0  0  0  0  0  0  0  0
   45.8745    9.2837   12.4798 C   0  0  0  0  0  0  0  0  0  0  0  0
   46.2672    7.8643   12.1888 C   0  0  2  0  0  0  0  0  0  0  0  0
   48.7565    7.3391   15.6717 C   0  0  0  0  0  0  0  0  0  0  0  0
   50.6750    9.8264   11.0020 C   0  0  0  0  0  0  0  0  0  0  0  0
   49.3430    9.6814   15.9479 C   0  0  0  0  0  0  0  0  0  0  0  0
   49.1417    8.3968   16.4924 C   0  0  0  0  0  0  0  0  0  0  0  0
   48.5008    6.1192   16.2156 O   0  0  0  0  0  0  0  0  0  0  0  0
   45.5121    7.0150   13.0493 O   0  0  0  0  0  0  0  0  0  0  0  0
   51.1223   12.1820   11.2995 C   0  0  0  0  0  0  0  0  0  0  0  0
   49.1973    8.4621   13.4015 C   0  0  2  0  0  0  0  0  0  0  0  0
   49.0721    9.7124   12.5800 C   0  0  0  0  0  0  0  0  0  0  0  0
   47.9162    8.3137   14.2341 C   0  0  2  0  0  0  0  0  0  0  0  0
   50.2866   10.3623   12.4914 C   0  0  0  0  0  0  0  0  0  0  0  0
   50.5018    8.8489   14.1356 C   0  0  1  0  0  0  0  0  0  0  0  0
   51.2497    9.7599   13.2616 O   0  0  0  0  0  0  0  0  0  0  0  0
   46.7335    8.2703   13.2032 C   0  0  2  0  0  0  0  0  0  0  0  0
   46.8920    7.1887   12.1933 N   0  0  0  0  0  0  0  0  0  0  0  0
   47.9087   10.2362   12.0446 C   0  0  0  0  0  0  0  0  0  0  0  0
   47.7965    9.3793   15.2994 C   0  0  0  0  0  0  0  0  0  0  0  0
   46.5895    9.6119   12.4145 C   0  0  0  0  0  0  0  0  0  0  0  0
   49.3760    7.2474   12.4580 C   0  0  0  0  0  0  0  0  0  0  0  0
   48.8841    9.9060   15.8845 C   0  0  0  0  0  0  0  0  0  0  0  0
   50.2814    9.4394   15.5644 C   0  0  2  0  0  0  0  0  0  0  0  0
   50.4347   11.5149   11.7389 C   0  0  0  0  0  0  0  0  0  0  0  0
   48.1062    6.3888   12.3450 C   0  0  0  0  0  0  0  0  0  0  0  0
   48.0256   11.4041   11.2905 C   0  0  0  0  0  0  0  0  0  0  0  0
   49.2829   12.0249   11.1206 C   0  0  0  0  0  0  0  0  0  0  0  0
   45.7040    6.3430   12.1061 C   0  0  0  0  0  0  0  0  0  0  0  0
   51.2247   10.4625   15.8643 O   0  0  0  0  0  0  0  0  0  0  0  0
   51.6846   12.0598   11.6851 O   0  0  0  0  0  0  0  0  0  0  0  0
   51.8444   13.2327   10.9019 C   0  0  0  0  0  0  0  0  0  0  0  0
   47.1482    9.5739   13.4703 H   0  0  0  0  0  0  0  0  0  0  0  0
   48.3074    5.0046   14.9740 H   0  0  0  0  0  0  0  0  0  0  0  0
   49.4935   11.5455   15.6430 H   0  0  0  0  0  0  0  0  0  0  0  0
   47.9875   11.1432   14.8770 H   0  0  0  0  0  0  0  0  0  0  0  0
   47.8337   11.9158   12.6404 H   0  0  0  0  0  0  0  0  0  0  0  0
   52.7443   11.5072   12.0755 H   0  0  0  0  0  0  0  0  0  0  0  0
   51.7027   10.8311   14.1668 H   0  0  0  0  0  0  0  0  0  0  0  0
   51.3672    7.8480   17.1829 H   0  0  0  0  0  0  0  0  0  0  0  0
   50.1034    5.8873   16.3598 H   0  0  0  0  0  0  0  0  0  0  0  0
   44.3009    8.7794   11.4202 H   0  0  0  0  0  0  0  0  0  0  0  0
   45.9502    9.4074   11.5042 H   0  0  0  0  0  0  0  0  0  0  0  0
   44.8617    9.4753   12.9448 H   0  0  0  0  0  0  0  0  0  0  0  0
   46.7822   12.7389   10.8042 H   0  0  0  0  0  0  0  0  0  0  0  0
   47.3690   11.1399   10.2064 H   0  0  0  0  0  0  0  0  0  0  0  0
   47.0907   12.4778    9.0842 H   0  0  0  0  0  0  0  0  0  0  0  0
   46.3988    3.6970   14.6855 H   0  0  0  0  0  0  0  0  0  0  0  0
   47.5353    3.5697   13.2850 H   0  0  0  0  0  0  0  0  0  0  0  0
   45.8228    3.1754   13.0984 H   0  0  0  0  0  0  0  0  0  0  0  0
   53.2373   13.2371   10.4959 H   0  0  0  0  0  0  0  0  0  0  0  0
   53.0077   12.9751    8.7632 H   0  0  0  0  0  0  0  0  0  0  0  0
   53.2353   11.5667    9.8056 H   0  0  0  0  0  0  0  0  0  0  0  0
   48.0850   10.1968   10.7694 H   0  0  0  0  0  0  0  0  0  0  0  0
   48.0175    6.9258   11.3565 H   0  0  0  0  0  0  0  0  0  0  0  0
   48.7950   12.2019   12.0306 H   0  0  0  0  0  0  0  0  0  0  0  0
   46.3408   11.3362   12.4959 H   0  0  0  0  0  0  0  0  0  0  0  0
   48.3556   11.8183   14.3094 H   0  0  0  0  0  0  0  0  0  0  0  0
   50.1172   11.8137   14.2658 H   0  0  0  0  0  0  0  0  0  0  0  0
   50.8048    8.1037   12.3036 H   0  0  0  0  0  0  0  0  0  0  0  0
   49.9689    7.8272   10.7844 H   0  0  0  0  0  0  0  0  0  0  0  0
   44.8424    9.4585   12.7753 H   0  0  0  0  0  0  0  0  0  0  0  0
   45.9124    7.6565   11.1714 H   0  0  0  0  0  0  0  0  0  0  0  0
   51.7368    9.6404   10.7962 H   0  0  0  0  0  0  0  0  0  0  0  0
   50.2045   10.0244   10.0295 H   0  0  0  0  0  0  0  0  0  0  0  0
   49.5835   10.5090   16.6111 H   0  0  0  0  0  0  0  0  0  0  0  0
   49.2487    8.2384   17.5622 H   0  0  0  0  0  0  0  0  0  0  0  0
   48.3053    5.5252   15.4670 H   0  0  0  0  0  0  0  0  0  0  0  0
   46.0699    6.8602   13.8340 H   0  0  0  0  0  0  0  0  0  0  0  0
   52.1739   12.0120   11.0438 H   0  0  0  0  0  0  0  0  0  0  0  0
   51.1048   13.0097   12.0169 H   0  0  0  0  0  0  0  0  0  0  0  0
   50.5929   12.4960   10.3934 H   0  0  0  0  0  0  0  0  0  0  0  0
   47.9313    7.3612   14.7835 H   0  0  0  0  0  0  0  0  0  0  0  0
   51.1511    7.9725   14.2584 H   0  0  0  0  0  0  0  0  0  0  0  0
   45.8028    8.1164   13.7670 H   0  0  0  0  0  0  0  0  0  0  0  0
   46.8052    9.7005   15.6082 H   0  0  0  0  0  0  0  0  0  0  0  0
   46.0509   10.3259   13.0515 H   0  0  0  0  0  0  0  0  0  0  0  0
   45.9780    9.4689   11.5145 H   0  0  0  0  0  0  0  0  0  0  0  0
   50.1711    6.5902   12.8319 H   0  0  0  0  0  0  0  0  0  0  0  0
   49.6877    7.5623   11.4533 H   0  0  0  0  0  0  0  0  0  0  0  0
   48.7516   10.6487   16.6657 H   0  0  0  0  0  0  0  0  0  0  0  0
   50.4852    8.6309   16.2797 H   0  0  0  0  0  0  0  0  0  0  0  0
   48.2236    5.7236   11.4801 H   0  0  0  0  0  0  0  0  0  0  0  0
   48.0305    5.7363   13.2254 H   0  0  0  0  0  0  0  0  0  0  0  0
   47.1434   11.8582   10.8458 H   0  0  0  0  0  0  0  0  0  0  0  0
   49.3175   12.9306   10.5239 H   0  0  0  0  0  0  0  0  0  0  0  0
   45.5184    5.8024   13.0410 H   0  0  0  0  0  0  0  0  0  0  0  0
   45.8074    5.6104   11.2984 H   0  0  0  0  0  0  0  0  0  0  0  0
   44.8193    6.9450   11.8717 H   0  0  0  0  0  0  0  0  0  0  0  0
   50.9499   10.9112   16.6785 H   0  0  0  0  0  0  0  0  0  0  0  0
   51.2474   14.0594   11.3013 H   0  0  0  0  0  0  0  0  0  0  0  0
   51.6028   13.0426    9.8506 H   0  0  0  0  0  0  0  0  0  0  0  0
   52.8967   13.5282   10.9522 H   0  0  0  0  0  0  0  0  0  0  0  0
  2  1  1  0
  3  1  2  0
  4  1  1  0
  5  3  1  0
  6  7  1  0
  7  4  2  0
  8  2  2  0
  9 12  2  0
 10  2  1  0
 11 14  2  0
 12 13  1  0
 13 10  1  0
 14 15  1  0
 15 13  2  0
 16 21  2  0
 17  5  1  0
 18  6  1  0
 19  9  1  0
 20 11  1  0
 21  4  1  0
 22 17  1  0
 23 19  1  0
 24 18  1  0
 25 20  1  0
 16  8  1  0
  6  5  2  0
 11  9  1  0
 27 26  1  0
 28 26  1  0
 29 27  2  0
 30 26  1  0
 30 31  1  0
 32 28  1  0
 33 27  1  0
 28 34  1  0
 32 35  1  0
 36 41  1  0
 26 37  1  1
 38 39  1  0
 39 30  1  0
 40 29  1  0
 41 37  1  0
 42 33  2  0
 43 42  1  0
 44 40  1  0
 39 45  1  0
 46 36  1  0
 29 31  1  0
 32 36  1  0
 38 34  2  0
 35 33  1  0
 43 40  2  0
 48 47  1  0
 49 47  1  0
 50 48  2  0
 51 47  1  0
 52 51  1  0
 53 49  1  0
 54 62  1  0
 55 48  1  0
 49 56  1  0
 53 57  1  0
 47 58  1  1
 59 60  1  0
 60 51  1  0
 61 50  1  0
 62 58  1  0
 63 55  2  0
 64 63  1  0
 65 54  1  0
 60 66  1  0
 67 61  1  0
 68 67  1  0
 52 50  1  0
 53 54  1  0
 59 56  2  0
 57 55  1  0
 64 61  2  0
  3 69  1  0
  7 70  1  0
 10 71  1  0
 10 72  1  0
 12 73  1  0
 14 74  1  0
 15 75  1  0
 16 76  1  0
 21 77  1  0
 22 78  1  0
 22 79  1  0
 22 80  1  0
 23 81  1  0
 23 82  1  0
 23 83  1  0
 24 84  1  0
 24 85  1  0
 24 86  1  0
 25 87  1  0
 25 88  1  0
 25 89  1  0
 28 90  1  1
 30 91  1  1
 32 92  1  6
 34 93  1  0
 35 94  1  0
 35 95  1  0
 37 96  1  0
 37 97  1  0
 38 98  1  0
 39 99  1  1
 41100  1  0
 41101  1  0
 42102  1  0
 43103  1  0
 44104  1  0
 45105  1  0
 46106  1  0
 46107  1  0
 46108  1  0
 49109  1  1
 51110  1  1
 53111  1  6
 56112  1  0
 57113  1  0
 57114  1  0
 58115  1  0
 58116  1  0
 59117  1  0
 60118  1  1
 62119  1  0
 62120  1  0
 63121  1  0
 64122  1  0
 65123  1  0
 65124  1  0
 65125  1  0
 66126  1  0
 68127  1  0
 68128  1  0
 68129  1  0
M  END
> <Uni-Dock RESULT> 
ENERGY=   -7.244  LOWER_BOUND=    5.876  UPPER_BOUND=    9.872
INTER + INTRA:          -7.244
INTER:                  -7.244
INTRA:                   0.000
UNBOUND:                 0.000

$$$$

     RDKit          3D

129139  0  0  0  0  0  0  0  0999 V2000
   49.6015    5.8715   21.6169 C   0  0  0  0  0  0  0  0  0  0  0  0
   48.3736    6.4757   21.9906 C   0  0  0  0  0  0  0  0  0  0  0  0
   49.9598    5.4967   20.2977 C   0  0  0  0  0  0  0  0  0  0  0  0
   50.5326    5.6227   22.6479 C   0  0  0  0  0  0  0  0  0  0  0  0
   51.1910    4.8950   20.0086 C   0  0  0  0  0  0  0  0  0  0  0  0
   52.1077    4.6616   21.0460 C   0  0  0  0  0  0  0  0  0  0  0  0
   51.7716    5.0260   22.3531 C   0  0  0  0  0  0  0  0  0  0  0  0
   48.0712    6.8100   23.2770 N   0  0  0  0  0  0  0  0  0  0  0  0
   47.8568    9.3332   18.1470 C   0  0  0  0  0  0  0  0  0  0  0  0
   47.2938    6.8216   20.9824 C   0  0  0  0  0  0  0  0  0  0  0  0
   47.9094   10.5492   18.8532 C   0  0  0  0  0  0  0  0  0  0  0  0
   47.6480    8.1308   18.8360 C   0  0  0  0  0  0  0  0  0  0  0  0
   47.5309    8.1165   20.2341 C   0  0  0  0  0  0  0  0  0  0  0  0
   47.7894   10.5362   20.2455 C   0  0  0  0  0  0  0  0  0  0  0  0
   47.6027    9.3311   20.9281 C   0  0  0  0  0  0  0  0  0  0  0  0
   48.9906    6.5533   24.2241 C   0  0  0  0  0  0  0  0  0  0  0  0
   51.5895    4.5054   18.7535 O   0  0  0  0  0  0  0  0  0  0  0  0
   53.2926    4.0713   20.6828 O   0  0  0  0  0  0  0  0  0  0  0  0
   47.9653    9.4098   16.7788 O   0  0  0  0  0  0  0  0  0  0  0  0
   48.0973   11.6802   18.0988 O   0  0  0  0  0  0  0  0  0  0  0  0
   50.2154    5.9724   23.9635 C   0  0  0  0  0  0  0  0  0  0  0  0
   50.6603    4.6384   17.6887 C   0  0  0  0  0  0  0  0  0  0  0  0
   48.5215    8.2724   16.1333 C   0  0  0  0  0  0  0  0  0  0  0  0
   54.2588    3.8426   21.6980 C   0  0  0  0  0  0  0  0  0  0  0  0
   48.0140   12.9314   18.7658 C   0  0  0  0  0  0  0  0  0  0  0  0
   50.4036    7.4136   19.8838 C   0  0  2  0  0  0  0  0  0  0  0  0
   49.6650    6.7912   21.0316 C   0  0  0  0  0  0  0  0  0  0  0  0
   49.4597    7.4574   18.6747 C   0  0  2  0  0  0  0  0  0  0  0  0
   50.5075    6.0036   21.7806 C   0  0  0  0  0  0  0  0  0  0  0  0
   51.5836    6.4132   19.8590 C   0  0  1  0  0  0  0  0  0  0  0  0
   51.7534    5.8756   21.2246 O   0  0  0  0  0  0  0  0  0  0  0  0
   48.1966    8.2650   19.1436 C   0  0  1  0  0  0  0  0  0  0  0  0
   48.3065    6.8711   21.2928 C   0  0  0  0  0  0  0  0  0  0  0  0
   49.1743    6.0842   18.1153 C   0  0  0  0  0  0  0  0  0  0  0  0
   47.4100    7.5222   20.2715 C   0  0  0  0  0  0  0  0  0  0  0  0
   48.5443    9.6099   19.6790 N   0  0  0  0  0  0  0  0  0  0  0  0
   50.8441    8.8474   20.2711 C   0  0  0  0  0  0  0  0  0  0  0  0
   50.0723    5.0906   18.2026 C   0  0  0  0  0  0  0  0  0  0  0  0
   51.4278    5.2549   18.8266 C   0  0  2  0  0  0  0  0  0  0  0  0
   50.0558    5.3665   22.9142 C   0  0  0  0  0  0  0  0  0  0  0  0
   49.9675    9.9357   19.6298 C   0  0  0  0  0  0  0  0  0  0  0  0
   47.8306    6.2185   22.4357 C   0  0  0  0  0  0  0  0  0  0  0  0
   48.7111    5.4861   23.2576 C   0  0  0  0  0  0  0  0  0  0  0  0
   50.8836    4.6037   23.6773 O   0  0  0  0  0  0  0  0  0  0  0  0
   51.8145    3.9966   19.3732 O   0  0  0  0  0  0  0  0  0  0  0  0
   47.7301   10.6649   19.0822 C   0  0  0  0  0  0  0  0  0  0  0  0
   50.1226    7.1638   21.0774 C   0  0  2  0  0  0  0  0  0  0  0  0
   49.4269    7.7650   19.8907 C   0  0  0  0  0  0  0  0  0  0  0  0
   49.9449    5.6407   21.0076 C   0  0  2  0  0  0  0  0  0  0  0  0
   48.8151    8.9539   20.2335 C   0  0  0  0  0  0  0  0  0  0  0  0
   49.3433    7.9386   22.1650 C   0  0  1  0  0  0  0  0  0  0  0  0
   48.9093    9.2117   21.5783 O   0  0  0  0  0  0  0  0  0  0  0  0
   50.5562    5.1970   19.6318 C   0  0  2  0  0  0  0  0  0  0  0  0
   51.9743    5.6188   19.4712 N   0  0  0  0  0  0  0  0  0  0  0  0
   49.3036    7.2022   18.6327 C   0  0  0  0  0  0  0  0  0  0  0  0
   48.5117    5.2183   21.2360 C   0  0  0  0  0  0  0  0  0  0  0  0
   49.7661    5.7854   18.4185 C   0  0  0  0  0  0  0  0  0  0  0  0
   51.6243    7.5385   21.0321 C   0  0  0  0  0  0  0  0  0  0  0  0
   47.6958    5.9231   22.0362 C   0  0  0  0  0  0  0  0  0  0  0  0
   48.1603    7.1389   22.7970 C   0  0  2  0  0  0  0  0  0  0  0  0
   48.1532    9.7225   19.2913 C   0  0  0  0  0  0  0  0  0  0  0  0
   52.5189    6.3638   20.6051 C   0  0  0  0  0  0  0  0  0  0  0  0
   48.6312    7.9493   17.6651 C   0  0  0  0  0  0  0  0  0  0  0  0
   48.0807    9.2096   17.9872 C   0  0  0  0  0  0  0  0  0  0  0  0
   52.8395    4.5009   19.1031 C   0  0  0  0  0  0  0  0  0  0  0  0
   47.0552    7.9829   23.1017 O   0  0  0  0  0  0  0  0  0  0  0  0
   47.6145   10.8992   19.7237 O   0  0  0  0  0  0  0  0  0  0  0  0
   46.9485   11.6980   18.7577 C   0  0  0  0  0  0  0  0  0  0  0  0
   49.2576    5.6845   19.4954 H   0  0  0  0  0  0  0  0  0  0  0  0
   52.4656    4.8498   23.1690 H   0  0  0  0  0  0  0  0  0  0  0  0
   46.3317    6.9108   21.5061 H   0  0  0  0  0  0  0  0  0  0  0  0
   47.1537    5.9835   20.2892 H   0  0  0  0  0  0  0  0  0  0  0  0
   47.5528    7.1970   18.2913 H   0  0  0  0  0  0  0  0  0  0  0  0
   47.8393   11.4463   20.8332 H   0  0  0  0  0  0  0  0  0  0  0  0
   47.5078    9.3459   22.0137 H   0  0  0  0  0  0  0  0  0  0  0  0
   48.7086    6.8367   25.2341 H   0  0  0  0  0  0  0  0  0  0  0  0
   50.9070    5.7969   24.7812 H   0  0  0  0  0  0  0  0  0  0  0  0
   51.1284    4.2388   16.7839 H   0  0  0  0  0  0  0  0  0  0  0  0
   50.4234    5.6906   17.5030 H   0  0  0  0  0  0  0  0  0  0  0  0
   49.7531    4.0553   17.8786 H   0  0  0  0  0  0  0  0  0  0  0  0
   47.7793    7.4728   16.0492 H   0  0  0  0  0  0  0  0  0  0  0  0
   49.4248    7.9181   16.6427 H   0  0  0  0  0  0  0  0  0  0  0  0
   48.8062    8.5697   15.1198 H   0  0  0  0  0  0  0  0  0  0  0  0
   53.8815    3.1426   22.4508 H   0  0  0  0  0  0  0  0  0  0  0  0
   54.5815    4.7834   22.1561 H   0  0  0  0  0  0  0  0  0  0  0  0
   55.1348    3.3845   21.2287 H   0  0  0  0  0  0  0  0  0  0  0  0
   47.0415   13.0584   19.2534 H   0  0  0  0  0  0  0  0  0  0  0  0
   48.1126   13.7188   18.0125 H   0  0  0  0  0  0  0  0  0  0  0  0
   48.8345   13.0516   19.4807 H   0  0  0  0  0  0  0  0  0  0  0  0
   49.9335    8.0061   17.8479 H   0  0  0  0  0  0  0  0  0  0  0  0
   52.5254    6.9259   19.6267 H   0  0  0  0  0  0  0  0  0  0  0  0
   47.5259    8.3703   18.2794 H   0  0  0  0  0  0  0  0  0  0  0  0
   48.2333    5.9162   17.5969 H   0  0  0  0  0  0  0  0  0  0  0  0
   46.8069    6.7317   19.8061 H   0  0  0  0  0  0  0  0  0  0  0  0
   46.7094    8.2041   20.7695 H   0  0  0  0  0  0  0  0  0  0  0  0
   50.8482    8.9835   21.3608 H   0  0  0  0  0  0  0  0  0  0  0  0
   51.8724    9.0298   19.9353 H   0  0  0  0  0  0  0  0  0  0  0  0
   49.8499    4.1245   17.7551 H   0  0  0  0  0  0  0  0  0  0  0  0
   52.1192    5.4497   17.9971 H   0  0  0  0  0  0  0  0  0  0  0  0
   50.1549   10.8769   20.1621 H   0  0  0  0  0  0  0  0  0  0  0  0
   50.2900   10.1007   18.5929 H   0  0  0  0  0  0  0  0  0  0  0  0
   46.7726    6.2509   22.6850 H   0  0  0  0  0  0  0  0  0  0  0  0
   48.3328    4.9795   24.1415 H   0  0  0  0  0  0  0  0  0  0  0  0
   51.7746    4.7043   23.2929 H   0  0  0  0  0  0  0  0  0  0  0  0
   51.5376    4.0112   20.3081 H   0  0  0  0  0  0  0  0  0  0  0  0
   47.9279   11.6273   19.5667 H   0  0  0  0  0  0  0  0  0  0  0  0
   46.6641   10.4566   19.2244 H   0  0  0  0  0  0  0  0  0  0  0  0
   47.9233   10.7721   18.0093 H   0  0  0  0  0  0  0  0  0  0  0  0
   50.5170    5.1568   21.8125 H   0  0  0  0  0  0  0  0  0  0  0  0
   50.0078    8.2168   22.9930 H   0  0  0  0  0  0  0  0  0  0  0  0
   50.4871    4.1018   19.5720 H   0  0  0  0  0  0  0  0  0  0  0  0
   48.1519    4.3109   20.7582 H   0  0  0  0  0  0  0  0  0  0  0  0
   48.8742    5.1652   18.2591 H   0  0  0  0  0  0  0  0  0  0  0  0
   50.3626    5.7216   17.4997 H   0  0  0  0  0  0  0  0  0  0  0  0
   51.9670    7.8533   22.0258 H   0  0  0  0  0  0  0  0  0  0  0  0
   51.8054    8.3900   20.3630 H   0  0  0  0  0  0  0  0  0  0  0  0
   46.6818    5.5680   22.1951 H   0  0  0  0  0  0  0  0  0  0  0  0
   48.5140    6.7549   23.7637 H   0  0  0  0  0  0  0  0  0  0  0  0
   53.5058    6.7672   20.3454 H   0  0  0  0  0  0  0  0  0  0  0  0
   52.6765    5.6976   21.4642 H   0  0  0  0  0  0  0  0  0  0  0  0
   48.5063    7.5552   16.6595 H   0  0  0  0  0  0  0  0  0  0  0  0
   47.5688    9.7490   17.1969 H   0  0  0  0  0  0  0  0  0  0  0  0
   52.8808    3.7402   19.8907 H   0  0  0  0  0  0  0  0  0  0  0  0
   53.8593    4.8480   18.9047 H   0  0  0  0  0  0  0  0  0  0  0  0
   52.4850    4.0271   18.1811 H   0  0  0  0  0  0  0  0  0  0  0  0
   46.2931    7.4289   23.3298 H   0  0  0  0  0  0  0  0  0  0  0  0
   46.0751   11.1788   18.3492 H   0  0  0  0  0  0  0  0  0  0  0  0
   47.6328   12.0076   17.9604 H   0  0  0  0  0  0  0  0  0  0  0  0
   46.5925   12.6029   19.2592 H   0  0  0  0  0  0  0  0  0  0  0  0
  2  1  1  0
  3  1  2  0
  4  1  1  0
  5  3  1  0
  6  7  1  0
  7  4  2  0
  8  2  2  0
  9 12  2  0
 10  2  1  0
 11 14  2  0
 12 13  1  0
 13 10  1  0
 14 15  1  0
 15 13  2  0
 16 21  2  0
 17  5  1  0
 18  6  1  0
 19  9  1  0
 20 11  1  0
 21  4  1  0
 22 17  1  0
 23 19  1  0
 24 18  1  0
 25 20  1  0
 16  8  1  0
  6  5  2  0
 11  9  1  0
 27 26  1  0
 28 26  1  0
 29 27  2  0
 30 26  1  0
 30 31  1  0
 32 28  1  0
 33 27  1  0
 28 34  1  0
 32 35  1  0
 36 41  1  0
 26 37  1  1
 38 39  1  0
 39 30  1  0
 40 29  1  0
 41 37  1  0
 42 33  2  0
 43 42  1  0
 44 40  1  0
 39 45  1  0
 46 36  1  0
 29 31  1  0
 32 36  1  0
 38 34  2  0
 35 33  1  0
 43 40  2  0
 48 47  1  0
 49 47  1  0
 50 48  2  0
 51 47  1  0
 52 51  1  0
 53 49  1  0
 54 62  1  0
 55 48  1  0
 49 56  1  0
 53 57  1  0
 47 58  1  1
 59 60  1  0
 60 51  1  0
 61 50  1  0
 62 58  1  0
 63 55  2  0
 64 63  1  0
 65 54  1  0
 60 66  1  0
 67 61  1  0
 68 67  1  0
 52 50  1  0
 53 54  1  0
 59 56  2  0
 57 55  1  0
 64 61  2  0
  3 69  1  0
  7 70  1  0
 10 71  1  0
 10 72  1  0
 12 73  1  0
 14 74  1  0
 15 75  1  0
 16 76  1  0
 21 77  1  0
 22 78  1  0
 22 79  1  0
 22 80  1  0
 23 81  1  0
 23 82  1  0
 23 83  1  0
 24 84  1  0
 24 85  1  0
 24 86  1  0
 25 87  1  0
 25 88  1  0
 25 89  1  0
 28 90  1  1
 30 91  1  1
 32 92  1  6
 34 93  1  0
 35 94  1  0
 35 95  1  0
 37 96  1  0
 37 97  1  0
 38 98  1  0
 39 99  1  1
 41100  1  0
 41101  1  0
 42102  1  0
 43103  1  0
 44104  1  0
 45105  1  0
 46106  1  0
 46107  1  0
 46108  1  0
 49109  1  1
 51110  1  1
 53111  1  6
 56112  1  0
 57113  1  0
 57114  1  0
 58115  1  0
 58116  1  0
 59117  1  0
 60118  1  1
 62119  1  0
 62120  1  0
 63121  1  0
 64122  1  0
 65123  1  0
 65124  1  0
 65125  1  0
 66126  1  0
 68127  1  0
 68128  1  0
 68129  1  0
M  END
> <Uni-Dock RESULT> 
ENERGY=   -7.021  LOWER_BOUND=    2.641  UPPER_BOUND=    6.865
INTER + INTRA:          -7.021
INTER:                  -7.021
INTRA:                   0.000
UNBOUND:                 0.000

$$$$

     RDKit          3D

129139  0  0  0  0  0  0  0  0999 V2000
   48.5776    7.3792   18.5098 C   0  0  0  0  0  0  0  0  0  0  0  0
   49.0298    6.0789   18.1678 C   0  0  0  0  0  0  0  0  0  0  0  0
   48.0853    7.7652   19.7817 C   0  0  0  0  0  0  0  0  0  0  0  0
   48.6200    8.3593   17.4951 C   0  0  0  0  0  0  0  0  0  0  0  0
   47.6476    9.0703   20.0403 C   0  0  0  0  0  0  0  0  0  0  0  0
   47.7037   10.0337   19.0207 C   0  0  0  0  0  0  0  0  0  0  0  0
   48.1876    9.6711   17.7604 C   0  0  0  0  0  0  0  0  0  0  0  0
   49.4866    5.7539   16.9254 N   0  0  0  0  0  0  0  0  0  0  0  0
   51.2176    5.0341   22.3306 C   0  0  0  0  0  0  0  0  0  0  0  0
   49.0625    4.9370   19.1665 C   0  0  0  0  0  0  0  0  0  0  0  0
   52.5124    4.9071   21.7943 C   0  0  0  0  0  0  0  0  0  0  0  0
   50.1035    5.0338   21.4803 C   0  0  0  0  0  0  0  0  0  0  0  0
   50.2634    4.9494   20.0890 C   0  0  0  0  0  0  0  0  0  0  0  0
   52.6722    4.8196   20.4088 C   0  0  0  0  0  0  0  0  0  0  0  0
   51.5580    4.8414   19.5655 C   0  0  0  0  0  0  0  0  0  0  0  0
   49.5080    6.7219   15.9923 C   0  0  0  0  0  0  0  0  0  0  0  0
   47.1558    9.4995   21.2485 O   0  0  0  0  0  0  0  0  0  0  0  0
   47.2599   11.2897   19.3523 O   0  0  0  0  0  0  0  0  0  0  0  0
   51.1214    5.1006   23.7002 O   0  0  0  0  0  0  0  0  0  0  0  0
   53.5444    4.8968   22.6990 O   0  0  0  0  0  0  0  0  0  0  0  0
   49.0936    8.0179   16.2251 C   0  0  0  0  0  0  0  0  0  0  0  0
   46.9958    8.5391   22.2814 C   0  0  0  0  0  0  0  0  0  0  0  0
   50.0062    5.8172   24.2124 C   0  0  0  0  0  0  0  0  0  0  0  0
   47.3252   12.3008   18.3574 C   0  0  0  0  0  0  0  0  0  0  0  0
   54.8471    4.6293   22.2004 C   0  0  0  0  0  0  0  0  0  0  0  0
   49.9725    7.8895   20.4639 C   0  0  2  0  0  0  0  0  0  0  0  0
   49.4068    7.2834   19.2138 C   0  0  0  0  0  0  0  0  0  0  0  0
   49.7031    6.9258   21.6273 C   0  0  2  0  0  0  0  0  0  0  0  0
   48.8696    8.2559   18.4034 C   0  0  0  0  0  0  0  0  0  0  0  0
   49.1732    9.2130   20.4059 C   0  0  1  0  0  0  0  0  0  0  0  0
   48.8610    9.4944   18.9896 O   0  0  0  0  0  0  0  0  0  0  0  0
   50.3620    5.5602   21.2166 C   0  0  1  0  0  0  0  0  0  0  0  0
   49.3104    5.9352   18.9084 C   0  0  0  0  0  0  0  0  0  0  0  0
   48.2386    6.8511   21.9875 C   0  0  0  0  0  0  0  0  0  0  0  0
   49.6683    4.9255   19.9682 C   0  0  0  0  0  0  0  0  0  0  0  0
   51.8051    5.7005   20.8790 N   0  0  0  0  0  0  0  0  0  0  0  0
   51.4967    8.1041   20.2887 C   0  0  0  0  0  0  0  0  0  0  0  0
   47.4176    7.8974   21.8075 C   0  0  0  0  0  0  0  0  0  0  0  0
   47.8741    9.2221   21.2684 C   0  0  2  0  0  0  0  0  0  0  0  0
   48.3321    7.9350   17.1774 C   0  0  0  0  0  0  0  0  0  0  0  0
   52.3376    7.0523   21.0309 C   0  0  0  0  0  0  0  0  0  0  0  0
   48.7552    5.5931   17.6702 C   0  0  0  0  0  0  0  0  0  0  0  0
   48.2878    6.5958   16.7964 C   0  0  0  0  0  0  0  0  0  0  0  0
   47.8188    8.8893   16.3556 O   0  0  0  0  0  0  0  0  0  0  0  0
   46.7780    9.8155   20.5769 O   0  0  0  0  0  0  0  0  0  0  0  0
   52.6292    4.7165   21.5753 C   0  0  0  0  0  0  0  0  0  0  0  0
   49.8486    7.6767   19.2371 C   0  0  2  0  0  0  0  0  0  0  0  0
   50.1660    6.8696   20.4625 C   0  0  0  0  0  0  0  0  0  0  0  0
   48.3213    7.7423   19.0971 C   0  0  2  0  0  0  0  0  0  0  0  0
   51.2814    6.0837   20.2545 C   0  0  0  0  0  0  0  0  0  0  0  0
   50.6352    6.8067   18.2296 C   0  0  1  0  0  0  0  0  0  0  0  0
   51.7329    6.1635   18.9608 O   0  0  0  0  0  0  0  0  0  0  0  0
   47.7930    8.3877   20.4266 C   0  0  2  0  0  0  0  0  0  0  0  0
   48.4033    9.7170   20.7013 N   0  0  0  0  0  0  0  0  0  0  0  0
   49.4235    6.8114   21.6286 C   0  0  0  0  0  0  0  0  0  0  0  0
   47.7174    6.3997   18.7546 C   0  0  0  0  0  0  0  0  0  0  0  0
   48.0797    7.4890   21.6728 C   0  0  0  0  0  0  0  0  0  0  0  0
   50.4415    9.0984   19.3948 C   0  0  0  0  0  0  0  0  0  0  0  0
   48.3905    5.4988   18.0210 C   0  0  0  0  0  0  0  0  0  0  0  0
   49.7563    5.7795   17.4480 C   0  0  2  0  0  0  0  0  0  0  0  0
   51.8015    5.2884   21.2614 C   0  0  0  0  0  0  0  0  0  0  0  0
   49.3722   10.1595   19.6999 C   0  0  0  0  0  0  0  0  0  0  0  0
   49.9174    6.0088   22.6573 C   0  0  0  0  0  0  0  0  0  0  0  0
   51.1094    5.2715   22.4819 C   0  0  0  0  0  0  0  0  0  0  0  0
   47.3930   10.7413   20.9544 C   0  0  0  0  0  0  0  0  0  0  0  0
   50.4527    4.5607   17.2114 O   0  0  0  0  0  0  0  0  0  0  0  0
   52.9286    4.5784   20.9662 O   0  0  0  0  0  0  0  0  0  0  0  0
   53.4743    3.7738   22.0004 C   0  0  0  0  0  0  0  0  0  0  0  0
   48.0501    7.0256   20.5715 H   0  0  0  0  0  0  0  0  0  0  0  0
   48.2348   10.4010   16.9583 H   0  0  0  0  0  0  0  0  0  0  0  0
   49.0726    3.9841   18.6192 H   0  0  0  0  0  0  0  0  0  0  0  0
   48.1256    4.9178   19.7362 H   0  0  0  0  0  0  0  0  0  0  0  0
   49.1003    5.0771   21.8921 H   0  0  0  0  0  0  0  0  0  0  0  0
   53.6510    4.7362   19.9492 H   0  0  0  0  0  0  0  0  0  0  0  0
   51.7068    4.7678   18.4883 H   0  0  0  0  0  0  0  0  0  0  0  0
   49.8803    6.4194   15.0177 H   0  0  0  0  0  0  0  0  0  0  0  0
   49.1414    8.7453   15.4213 H   0  0  0  0  0  0  0  0  0  0  0  0
   46.5532    9.0459   23.1443 H   0  0  0  0  0  0  0  0  0  0  0  0
   47.9630    8.1339   22.5945 H   0  0  0  0  0  0  0  0  0  0  0  0
   46.3109    7.7404   21.9780 H   0  0  0  0  0  0  0  0  0  0  0  0
   49.0973    5.2102   24.1586 H   0  0  0  0  0  0  0  0  0  0  0  0
   49.8694    6.7758   23.6991 H   0  0  0  0  0  0  0  0  0  0  0  0
   50.2020    6.0299   25.2675 H   0  0  0  0  0  0  0  0  0  0  0  0
   46.6853   12.0555   17.5034 H   0  0  0  0  0  0  0  0  0  0  0  0
   48.3585   12.4790   18.0419 H   0  0  0  0  0  0  0  0  0  0  0  0
   46.9483   13.2287   18.7985 H   0  0  0  0  0  0  0  0  0  0  0  0
   54.8877    3.6593   21.6934 H   0  0  0  0  0  0  0  0  0  0  0  0
   55.5293    4.5856   23.0549 H   0  0  0  0  0  0  0  0  0  0  0  0
   55.1900    5.4349   21.5430 H   0  0  0  0  0  0  0  0  0  0  0  0
   50.1998    7.2889   22.5387 H   0  0  0  0  0  0  0  0  0  0  0  0
   49.7888   10.0560   20.7435 H   0  0  0  0  0  0  0  0  0  0  0  0
   50.2425    4.8635   22.0581 H   0  0  0  0  0  0  0  0  0  0  0  0
   47.8574    5.9383   22.4390 H   0  0  0  0  0  0  0  0  0  0  0  0
   48.7376    4.4464   20.2990 H   0  0  0  0  0  0  0  0  0  0  0  0
   50.2952    4.1358   19.5357 H   0  0  0  0  0  0  0  0  0  0  0  0
   51.7801    8.1091   19.2278 H   0  0  0  0  0  0  0  0  0  0  0  0
   51.7883    9.0830   20.6888 H   0  0  0  0  0  0  0  0  0  0  0  0
   46.3766    7.8224   22.1134 H   0  0  0  0  0  0  0  0  0  0  0  0
   48.0579    9.8563   22.1449 H   0  0  0  0  0  0  0  0  0  0  0  0
   53.3605    7.0984   20.6361 H   0  0  0  0  0  0  0  0  0  0  0  0
   52.4066    7.3228   22.0931 H   0  0  0  0  0  0  0  0  0  0  0  0
   48.6572    4.5488   17.3830 H   0  0  0  0  0  0  0  0  0  0  0  0
   47.8550    6.3214   15.8381 H   0  0  0  0  0  0  0  0  0  0  0  0
   48.0024    9.7447   16.7872 H   0  0  0  0  0  0  0  0  0  0  0  0
   46.8778    9.5593   19.6414 H   0  0  0  0  0  0  0  0  0  0  0  0
   53.6679    4.7686   21.2312 H   0  0  0  0  0  0  0  0  0  0  0  0
   52.2798    3.7004   21.3620 H   0  0  0  0  0  0  0  0  0  0  0  0
   52.6167    4.8679   22.6601 H   0  0  0  0  0  0  0  0  0  0  0  0
   48.0470    8.4007   18.2601 H   0  0  0  0  0  0  0  0  0  0  0  0
   51.1240    7.4355   17.4745 H   0  0  0  0  0  0  0  0  0  0  0  0
   46.7026    8.4926   20.3381 H   0  0  0  0  0  0  0  0  0  0  0  0
   46.7083    6.1790   19.0926 H   0  0  0  0  0  0  0  0  0  0  0  0
   47.3128    6.7041   21.7109 H   0  0  0  0  0  0  0  0  0  0  0  0
   47.9835    8.0689   22.5994 H   0  0  0  0  0  0  0  0  0  0  0  0
   50.9391    9.4071   18.4669 H   0  0  0  0  0  0  0  0  0  0  0  0
   51.2108    9.1277   20.1777 H   0  0  0  0  0  0  0  0  0  0  0  0
   47.9078    4.5578   17.7740 H   0  0  0  0  0  0  0  0  0  0  0  0
   49.5682    6.2098   16.4548 H   0  0  0  0  0  0  0  0  0  0  0  0
   49.8841   11.0639   20.0521 H   0  0  0  0  0  0  0  0  0  0  0  0
   48.8628   10.4389   18.7677 H   0  0  0  0  0  0  0  0  0  0  0  0
   49.3744    5.9273   23.5958 H   0  0  0  0  0  0  0  0  0  0  0  0
   51.4493    4.6639   23.3143 H   0  0  0  0  0  0  0  0  0  0  0  0
   46.7633   10.9195   20.0755 H   0  0  0  0  0  0  0  0  0  0  0  0
   47.8634   11.6885   21.2398 H   0  0  0  0  0  0  0  0  0  0  0  0
   46.7480   10.4477   21.7898 H   0  0  0  0  0  0  0  0  0  0  0  0
   49.8240    3.9014   16.8801 H   0  0  0  0  0  0  0  0  0  0  0  0
   52.7749    2.9859   22.2994 H   0  0  0  0  0  0  0  0  0  0  0  0
   53.7737    4.3834   22.8598 H   0  0  0  0  0  0  0  0  0  0  0  0
   54.3733    3.2888   21.6085 H   0  0  0  0  0  0  0  0  0  0  0  0
  2  1  1  0
  3  1  2  0
  4  1  1  0
  5  3  1  0
  6  7  1  0
  7  4  2  0
  8  2  2  0
  9 12  2  0
 10  2  1  0
 11 14  2  0
 12 13  1  0
 13 10  1  0
 14 15  1  0
 15 13  2  0
 16 21  2  0
 17  5  1  0
 18  6  1  0
 19  9  1  0
 20 11  1  0
 21  4  1  0
 22 17  1  0
 23 19  1  0
 24 18  1  0
 25 20  1  0
 16  8  1  0
  6  5  2  0
 11  9  1  0
 27 26  1  0
 28 26  1  0
 29 27  2  0
 30 26  1  0
 30 31  1  0
 32 28  1  0
 33 27  1  0
 28 34  1  0
 32 35  1  0
 36 41  1  0
 26 37  1  1
 38 39  1  0
 39 30  1  0
 40 29  1  0
 41 37  1  0
 42 33  2  0
 43 42  1  0
 44 40  1  0
 39 45  1  0
 46 36  1  0
 29 31  1  0
 32 36  1  0
 38 34  2  0
 35 33  1  0
 43 40  2  0
 48 47  1  0
 49 47  1  0
 50 48  2  0
 51 47  1  0
 52 51  1  0
 53 49  1  0
 54 62  1  0
 55 48  1  0
 49 56  1  0
 53 57  1  0
 47 58  1  1
 59 60  1  0
 60 51  1  0
 61 50  1  0
 62 58  1  0
 63 55  2  0
 64 63  1  0
 65 54  1  0
 60 66  1  0
 67 61  1  0
 68 67  1  0
 52 50  1  0
 53 54  1  0
 59 56  2  0
 57 55  1  0
 64 61  2  0
  3 69  1  0
  7 70  1  0
 10 71  1  0
 10 72  1  0
 12 73  1  0
 14 74  1  0
 15 75  1  0
 16 76  1  0
 21 77  1  0
 22 78  1  0
 22 79  1  0
 22 80  1  0
 23 81  1  0
 23 82  1  0
 23 83  1  0
 24 84  1  0
 24 85  1  0
 24 86  1  0
 25 87  1  0
 25 88  1  0
 25 89  1  0
 28 90  1  1
 30 91  1  1
 32 92  1  6
 34 93  1  0
 35 94  1  0
 35 95  1  0
 37 96  1  0
 37 97  1  0
 38 98  1  0
 39 99  1  1
 41100  1  0
 41101  1  0
 42102  1  0
 43103  1  0
 44104  1  0
 45105  1  0
 46106  1  0
 46107  1  0
 46108  1  0
 49109  1  1
 51110  1  1
 53111  1  6
 56112  1  0
 57113  1  0
 57114  1  0
 58115  1  0
 58116  1  0
 59117  1  0
 60118  1  1
 62119  1  0
 62120  1  0
 63121  1  0
 64122  1  0
 65123  1  0
 65124  1  0
 65125  1  0
 66126  1  0
 68127  1  0
 68128  1  0
 68129  1  0
M  END
> <Uni-Dock RESULT> 
ENERGY=   -6.796  LOWER_BOUND=    2.760  UPPER_BOUND=    5.279
INTER + INTRA:          -6.796
INTER:                  -6.796
INTRA:                   0.000
UNBOUND:                 0.000

$$$$

     RDKit          3D

129139  0  0  0  0  0  0  0  0999 V2000
   47.9903    9.5319   19.7532 C   0  0  0  0  0  0  0  0  0  0  0  0
   47.3699   10.7140   20.2329 C   0  0  0  0  0  0  0  0  0  0  0  0
   48.1503    9.1893   18.3872 C   0  0  0  0  0  0  0  0  0  0  0  0
   48.4798    8.6280   20.7203 C   0  0  0  0  0  0  0  0  0  0  0  0
   48.7678    7.9961   17.9915 C   0  0  0  0  0  0  0  0  0  0  0  0
   49.2550    7.1123   18.9675 C   0  0  0  0  0  0  0  0  0  0  0  0
   49.1069    7.4346   20.3197 C   0  0  0  0  0  0  0  0  0  0  0  0
   47.2314   10.9947   21.5595 N   0  0  0  0  0  0  0  0  0  0  0  0
   49.0479   13.7376   16.8790 C   0  0  0  0  0  0  0  0  0  0  0  0
   46.8218   11.7824   19.3053 C   0  0  0  0  0  0  0  0  0  0  0  0
   49.7794   14.5534   17.7620 C   0  0  0  0  0  0  0  0  0  0  0  0
   48.0857   12.8498   17.3792 C   0  0  0  0  0  0  0  0  0  0  0  0
   47.8682   12.7317   18.7602 C   0  0  0  0  0  0  0  0  0  0  0  0
   49.5609   14.4388   19.1374 C   0  0  0  0  0  0  0  0  0  0  0  0
   48.6149   13.5360   19.6305 C   0  0  0  0  0  0  0  0  0  0  0  0
   47.7139   10.1029   22.4426 C   0  0  0  0  0  0  0  0  0  0  0  0
   48.9448    7.6089   16.6859 O   0  0  0  0  0  0  0  0  0  0  0  0
   49.8494    5.9663   18.5010 O   0  0  0  0  0  0  0  0  0  0  0  0
   49.2946   13.9054   15.5372 O   0  0  0  0  0  0  0  0  0  0  0  0
   50.6867   15.4075   17.1866 O   0  0  0  0  0  0  0  0  0  0  0  0
   48.3368    8.9261   22.0785 C   0  0  0  0  0  0  0  0  0  0  0  0
   48.3882    8.4264   15.6676 C   0  0  0  0  0  0  0  0  0  0  0  0
   49.0832   12.7639   14.7174 C   0  0  0  0  0  0  0  0  0  0  0  0
   50.3801    5.0582   19.4550 C   0  0  0  0  0  0  0  0  0  0  0  0
   51.3367   16.3400   18.0381 C   0  0  0  0  0  0  0  0  0  0  0  0
   49.7138   10.4475   18.2646 C   0  0  2  0  0  0  0  0  0  0  0  0
   48.6558   10.2782   19.3144 C   0  0  0  0  0  0  0  0  0  0  0  0
   49.1029   11.2238   17.0903 C   0  0  2  0  0  0  0  0  0  0  0  0
   48.7675    9.0495   19.9219 C   0  0  0  0  0  0  0  0  0  0  0  0
   50.0234    8.9442   18.0699 C   0  0  1  0  0  0  0  0  0  0  0  0
   49.7107    8.2475   19.3347 O   0  0  0  0  0  0  0  0  0  0  0  0
   48.5723   12.5728   17.6956 C   0  0  1  0  0  0  0  0  0  0  0  0
   47.6194   11.1510   19.6047 C   0  0  0  0  0  0  0  0  0  0  0  0
   48.0799   10.4124   16.3319 C   0  0  0  0  0  0  0  0  0  0  0  0
   47.4042   12.3429   18.7081 C   0  0  0  0  0  0  0  0  0  0  0  0
   49.6286   13.3267   18.4251 N   0  0  0  0  0  0  0  0  0  0  0  0
   50.9100   11.2315   18.8599 C   0  0  0  0  0  0  0  0  0  0  0  0
   48.1634    9.0753   16.2531 C   0  0  0  0  0  0  0  0  0  0  0  0
   49.2739    8.2791   16.8751 C   0  0  2  0  0  0  0  0  0  0  0  0
   47.9263    8.6923   20.9513 C   0  0  0  0  0  0  0  0  0  0  0  0
   50.9480   12.6998   18.4054 C   0  0  0  0  0  0  0  0  0  0  0  0
   46.7489   10.7957   20.6413 C   0  0  0  0  0  0  0  0  0  0  0  0
   46.9182    9.5766   21.3287 C   0  0  0  0  0  0  0  0  0  0  0  0
   48.0405    7.4901   21.5767 O   0  0  0  0  0  0  0  0  0  0  0  0
   48.7555    6.9961   17.2172 O   0  0  0  0  0  0  0  0  0  0  0  0
   49.6911   14.7248   18.0085 C   0  0  0  0  0  0  0  0  0  0  0  0
   49.2400   10.2757   19.4100 C   0  0  2  0  0  0  0  0  0  0  0  0
   49.1650   11.3254   18.3394 C   0  0  0  0  0  0  0  0  0  0  0  0
   48.1680    9.2185   19.1109 C   0  0  2  0  0  0  0  0  0  0  0  0
   49.3899   12.5802   18.8688 C   0  0  0  0  0  0  0  0  0  0  0  0
   49.0162   11.2188   20.6145 C   0  0  1  0  0  0  0  0  0  0  0  0
   49.5100   12.5477   20.2356 O   0  0  0  0  0  0  0  0  0  0  0  0
   48.4883    8.6727   17.6747 C   0  0  2  0  0  0  0  0  0  0  0  0
   49.8722    8.1374   17.5596 N   0  0  0  0  0  0  0  0  0  0  0  0
   48.8269   11.1292   17.0121 C   0  0  0  0  0  0  0  0  0  0  0  0
   46.7663    9.7539   19.2930 C   0  0  0  0  0  0  0  0  0  0  0  0
   48.3338    9.7746   16.5772 C   0  0  0  0  0  0  0  0  0  0  0  0
   50.6506    9.6372   19.4005 C   0  0  0  0  0  0  0  0  0  0  0  0
   46.4948   10.7027   20.2034 C   0  0  0  0  0  0  0  0  0  0  0  0
   47.5441   11.2552   21.1342 C   0  0  2  0  0  0  0  0  0  0  0  0
   49.4242   13.7068   18.0649 C   0  0  0  0  0  0  0  0  0  0  0  0
   50.6629    8.2284   18.7859 C   0  0  0  0  0  0  0  0  0  0  0  0
   48.8418   12.2489   16.1800 C   0  0  0  0  0  0  0  0  0  0  0  0
   49.1605   13.5234   16.6990 C   0  0  0  0  0  0  0  0  0  0  0  0
   49.8916    6.7832   17.0123 C   0  0  0  0  0  0  0  0  0  0  0  0
   47.1734   12.5552   21.5804 O   0  0  0  0  0  0  0  0  0  0  0  0
   49.6914   14.8951   18.6799 O   0  0  0  0  0  0  0  0  0  0  0  0
   49.7429   16.0507   17.8572 C   0  0  0  0  0  0  0  0  0  0  0  0
   47.7833    9.8743   17.6333 H   0  0  0  0  0  0  0  0  0  0  0  0
   49.4735    6.7620   21.0888 H   0  0  0  0  0  0  0  0  0  0  0  0
   46.0796   12.3821   19.8505 H   0  0  0  0  0  0  0  0  0  0  0  0
   46.2536   11.3112   18.4943 H   0  0  0  0  0  0  0  0  0  0  0  0
   47.4813   12.2577   16.6997 H   0  0  0  0  0  0  0  0  0  0  0  0
   50.1116   15.0352   19.8566 H   0  0  0  0  0  0  0  0  0  0  0  0
   48.4588   13.4667   20.7070 H   0  0  0  0  0  0  0  0  0  0  0  0
   47.5832   10.3672   23.4882 H   0  0  0  0  0  0  0  0  0  0  0  0
   48.7018    8.2553   22.8495 H   0  0  0  0  0  0  0  0  0  0  0  0
   48.5843    7.9432   14.7057 H   0  0  0  0  0  0  0  0  0  0  0  0
   48.8667    9.4105   15.6484 H   0  0  0  0  0  0  0  0  0  0  0  0
   47.3026    8.5156   15.7794 H   0  0  0  0  0  0  0  0  0  0  0  0
   48.0162   12.6185   14.5229 H   0  0  0  0  0  0  0  0  0  0  0  0
   49.5296   11.8630   15.1534 H   0  0  0  0  0  0  0  0  0  0  0  0
   49.5742   12.9471   13.7571 H   0  0  0  0  0  0  0  0  0  0  0  0
   49.5903    4.6551   20.0975 H   0  0  0  0  0  0  0  0  0  0  0  0
   51.1742    5.5255   20.0468 H   0  0  0  0  0  0  0  0  0  0  0  0
   50.8231    4.2201   18.9085 H   0  0  0  0  0  0  0  0  0  0  0  0
   50.6126   16.9800   18.5536 H   0  0  0  0  0  0  0  0  0  0  0  0
   51.9622   16.9839   17.4125 H   0  0  0  0  0  0  0  0  0  0  0  0
   51.9935   15.8307   18.7508 H   0  0  0  0  0  0  0  0  0  0  0  0
   49.8812   11.4596   16.3503 H   0  0  0  0  0  0  0  0  0  0  0  0
   51.0963    8.7846   17.9049 H   0  0  0  0  0  0  0  0  0  0  0  0
   48.1843   13.1824   16.8675 H   0  0  0  0  0  0  0  0  0  0  0  0
   47.2829   10.9345   15.8078 H   0  0  0  0  0  0  0  0  0  0  0  0
   46.4837   12.1670   18.1363 H   0  0  0  0  0  0  0  0  0  0  0  0
   47.2341   13.2412   19.3147 H   0  0  0  0  0  0  0  0  0  0  0  0
   50.9059   11.1938   19.9575 H   0  0  0  0  0  0  0  0  0  0  0  0
   51.8557   10.7762   18.5409 H   0  0  0  0  0  0  0  0  0  0  0  0
   47.4314    8.5247   15.6666 H   0  0  0  0  0  0  0  0  0  0  0  0
   50.0048    8.1064   16.0750 H   0  0  0  0  0  0  0  0  0  0  0  0
   51.6302   13.2420   19.0725 H   0  0  0  0  0  0  0  0  0  0  0  0
   51.3889   12.7603   17.4013 H   0  0  0  0  0  0  0  0  0  0  0  0
   45.9195   11.4465   20.9081 H   0  0  0  0  0  0  0  0  0  0  0  0
   46.2358    9.3067   22.1302 H   0  0  0  0  0  0  0  0  0  0  0  0
   48.8323    7.0633   21.1992 H   0  0  0  0  0  0  0  0  0  0  0  0
   48.4695    7.0593   18.1473 H   0  0  0  0  0  0  0  0  0  0  0  0
   50.3986   15.2829   18.6314 H   0  0  0  0  0  0  0  0  0  0  0  0
   48.7161   15.2084   18.1328 H   0  0  0  0  0  0  0  0  0  0  0  0
   49.9983   14.8256   16.9619 H   0  0  0  0  0  0  0  0  0  0  0  0
   48.2503    8.3853   19.8239 H   0  0  0  0  0  0  0  0  0  0  0  0
   49.6387   10.9140   21.4655 H   0  0  0  0  0  0  0  0  0  0  0  0
   47.7643    7.8773   17.4491 H   0  0  0  0  0  0  0  0  0  0  0  0
   45.9653    9.3381   18.6875 H   0  0  0  0  0  0  0  0  0  0  0  0
   47.2665    9.8706   16.3380 H   0  0  0  0  0  0  0  0  0  0  0  0
   48.8386    9.4727   15.6507 H   0  0  0  0  0  0  0  0  0  0  0  0
   51.0298    9.5395   20.4254 H   0  0  0  0  0  0  0  0  0  0  0  0
   51.3732   10.2686   18.8668 H   0  0  0  0  0  0  0  0  0  0  0  0
   45.4686   11.0384   20.3210 H   0  0  0  0  0  0  0  0  0  0  0  0
   47.5035   10.6142   22.0256 H   0  0  0  0  0  0  0  0  0  0  0  0
   51.7061    7.9599   18.5765 H   0  0  0  0  0  0  0  0  0  0  0  0
   50.3039    7.5052   19.5307 H   0  0  0  0  0  0  0  0  0  0  0  0
   48.5853   12.1516   15.1279 H   0  0  0  0  0  0  0  0  0  0  0  0
   49.1582   14.3601   16.0079 H   0  0  0  0  0  0  0  0  0  0  0  0
   49.3892    6.0685   17.6737 H   0  0  0  0  0  0  0  0  0  0  0  0
   50.9207    6.4429   16.8544 H   0  0  0  0  0  0  0  0  0  0  0  0
   49.3992    6.7563   16.0340 H   0  0  0  0  0  0  0  0  0  0  0  0
   46.2161   12.5716   21.7323 H   0  0  0  0  0  0  0  0  0  0  0  0
   48.7732   16.2451   17.3870 H   0  0  0  0  0  0  0  0  0  0  0  0
   50.5363   15.9670   17.1066 H   0  0  0  0  0  0  0  0  0  0  0  0
   49.9799   16.9066   18.4963 H   0  0  0  0  0  0  0  0  0  0  0  0
  2  1  1  0
  3  1  2  0
  4  1  1  0
  5  3  1  0
  6  7  1  0
  7  4  2  0
  8  2  2  0
  9 12  2  0
 10  2  1  0
 11 14  2  0
 12 13  1  0
 13 10  1  0
 14 15  1  0
 15 13  2  0
 16 21  2  0
 17  5  1  0
 18  6  1  0
 19  9  1  0
 20 11  1  0
 21  4  1  0
 22 17  1  0
 23 19  1  0
 24 18  1  0
 25 20  1  0
 16  8  1  0
  6  5  2  0
 11  9  1  0
 27 26  1  0
 28 26  1  0
 29 27  2  0
 30 26  1  0
 30 31  1  0
 32 28  1  0
 33 27  1  0
 28 34  1  0
 32 35  1  0
 36 41  1  0
 26 37  1  1
 38 39  1  0
 39 30  1  0
 40 29  1  0
 41 37  1  0
 42 33  2  0
 43 42  1  0
 44 40  1  0
 39 45  1  0
 46 36  1  0
 29 31  1  0
 32 36  1  0
 38 34  2  0
 35 33  1  0
 43 40  2  0
 48 47  1  0
 49 47  1  0
 50 48  2  0
 51 47  1  0
 52 51  1  0
 53 49  1  0
 54 62  1  0
 55 48  1  0
 49 56  1  0
 53 57  1  0
 47 58  1  1
 59 60  1  0
 60 51  1  0
 61 50  1  0
 62 58  1  0
 63 55  2  0
 64 63  1  0
 65 54  1  0
 60 66  1  0
 67 61  1  0
 68 67  1  0
 52 50  1  0
 53 54  1  0
 59 56  2  0
 57 55  1  0
 64 61  2  0
  3 69  1  0
  7 70  1  0
 10 71  1  0
 10 72  1  0
 12 73  1  0
 14 74  1  0
 15 75  1  0
 16 76  1  0
 21 77  1  0
 22 78  1  0
 22 79  1  0
 22 80  1  0
 23 81  1  0
 23 82  1  0
 23 83  1  0
 24 84  1  0
 24 85  1  0
 24 86  1  0
 25 87  1  0
 25 88  1  0
 25 89  1  0
 28 90  1  1
 30 91  1  1
 32 92  1  6
 34 93  1  0
 35 94  1  0
 35 95  1  0
 37 96  1  0
 37 97  1  0
 38 98  1  0
 39 99  1  1
 41100  1  0
 41101  1  0
 42102  1  0
 43103  1  0
 44104  1  0
 45105  1  0
 46106  1  0
 46107  1  0
 46108  1  0
 49109  1  1
 51110  1  1
 53111  1  6
 56112  1  0
 57113  1  0
 57114  1  0
 58115  1  0
 58116  1  0
 59117  1  0
 60118  1  1
 62119  1  0
 62120  1  0
 63121  1  0
 64122  1  0
 65123  1  0
 65124  1  0
 65125  1  0
 66126  1  0
 68127  1  0
 68128  1  0
 68129  1  0
M  END
> <Uni-Dock RESULT> 
ENERGY=   -6.696  LOWER_BOUND=    1.902  UPPER_BOUND=    6.379
INTER + INTRA:          -6.696
INTER:                  -6.696
INTRA:                   0.000
UNBOUND:                 0.000

$$$$

     RDKit          3D

129139  0  0  0  0  0  0  0  0999 V2000
   49.8749    6.1180   19.0536 C   0  0  0  0  0  0  0  0  0  0  0  0
   48.5743    6.2671   19.6001 C   0  0  0  0  0  0  0  0  0  0  0  0
   50.2994    6.6312   17.8025 C   0  0  0  0  0  0  0  0  0  0  0  0
   50.8131    5.3953   19.8213 C   0  0  0  0  0  0  0  0  0  0  0  0
   51.6016    6.4344   17.3259 C   0  0  0  0  0  0  0  0  0  0  0  0
   52.5234    5.7189   18.1065 C   0  0  0  0  0  0  0  0  0  0  0  0
   52.1224    5.2066   19.3438 C   0  0  0  0  0  0  0  0  0  0  0  0
   48.2109    5.7460   20.8061 N   0  0  0  0  0  0  0  0  0  0  0  0
   47.7620   10.7813   18.1276 C   0  0  0  0  0  0  0  0  0  0  0  0
   47.4759    7.0402   18.8945 C   0  0  0  0  0  0  0  0  0  0  0  0
   47.6483   11.3425   19.4131 C   0  0  0  0  0  0  0  0  0  0  0  0
   47.6963    9.3912   17.9612 C   0  0  0  0  0  0  0  0  0  0  0  0
   47.5591    8.5421   19.0697 C   0  0  0  0  0  0  0  0  0  0  0  0
   47.5082   10.4975   20.5172 C   0  0  0  0  0  0  0  0  0  0  0  0
   47.4648    9.1112   20.3461 C   0  0  0  0  0  0  0  0  0  0  0  0
   49.1398    5.0655   21.5005 C   0  0  0  0  0  0  0  0  0  0  0  0
   52.0668    6.9016   16.1213 O   0  0  0  0  0  0  0  0  0  0  0  0
   53.7794    5.5708   17.5728 O   0  0  0  0  0  0  0  0  0  0  0  0
   47.8823   11.6619   17.0790 O   0  0  0  0  0  0  0  0  0  0  0  0
   47.7035   12.7120   19.4831 O   0  0  0  0  0  0  0  0  0  0  0  0
   50.4325    4.8679   21.0586 C   0  0  0  0  0  0  0  0  0  0  0  0
   51.1458    7.5517   15.2586 C   0  0  0  0  0  0  0  0  0  0  0  0
   48.5889   11.1841   15.9422 C   0  0  0  0  0  0  0  0  0  0  0  0
   54.7501    4.8768   18.3426 C   0  0  0  0  0  0  0  0  0  0  0  0
   47.4511   13.3120   20.7455 C   0  0  0  0  0  0  0  0  0  0  0  0
   50.5031    8.4526   18.6294 C   0  0  2  0  0  0  0  0  0  0  0  0
   49.8308    7.2068   19.1254 C   0  0  0  0  0  0  0  0  0  0  0  0
   49.5812    9.1152   17.5969 C   0  0  2  0  0  0  0  0  0  0  0  0
   50.7540    6.2110   19.3427 C   0  0  0  0  0  0  0  0  0  0  0  0
   51.8008    7.7754   18.1281 C   0  0  1  0  0  0  0  0  0  0  0  0
   52.0150    6.5529   18.9295 O   0  0  0  0  0  0  0  0  0  0  0  0
   48.2183    9.3677   18.3361 C   0  0  1  0  0  0  0  0  0  0  0  0
   48.4690    6.9903   19.2629 C   0  0  0  0  0  0  0  0  0  0  0  0
   49.4815    8.3197   16.3174 C   0  0  0  0  0  0  0  0  0  0  0  0
   47.5140    8.0327   18.7414 C   0  0  0  0  0  0  0  0  0  0  0  0
   48.3837   10.1606   19.5852 N   0  0  0  0  0  0  0  0  0  0  0  0
   50.7517    9.4129   19.8192 C   0  0  0  0  0  0  0  0  0  0  0  0
   50.4968    7.5555   15.8856 C   0  0  0  0  0  0  0  0  0  0  0  0
   51.8101    7.4437   16.6044 C   0  0  2  0  0  0  0  0  0  0  0  0
   50.3683    4.9884   19.8441 C   0  0  0  0  0  0  0  0  0  0  0  0
   49.7547   10.5827   19.8617 C   0  0  0  0  0  0  0  0  0  0  0  0
   48.0611    5.7475   19.7606 C   0  0  0  0  0  0  0  0  0  0  0  0
   49.0139    4.7563   20.0723 C   0  0  0  0  0  0  0  0  0  0  0  0
   51.2736    4.0028   20.0860 O   0  0  0  0  0  0  0  0  0  0  0  0
   52.3444    6.1484   16.3430 O   0  0  0  0  0  0  0  0  0  0  0  0
   47.4521   11.2831   19.6495 C   0  0  0  0  0  0  0  0  0  0  0  0
   50.2365    7.5206   19.4207 C   0  0  2  0  0  0  0  0  0  0  0  0
   49.4897    8.6394   18.7543 C   0  0  0  0  0  0  0  0  0  0  0  0
   50.2547    6.3253   18.4577 C   0  0  2  0  0  0  0  0  0  0  0  0
   48.7264    9.3323   19.6723 C   0  0  0  0  0  0  0  0  0  0  0  0
   49.3475    7.4257   20.6821 C   0  0  1  0  0  0  0  0  0  0  0  0
   48.7651    8.7522   20.9156 O   0  0  0  0  0  0  0  0  0  0  0  0
   50.9398    6.8403   17.1428 C   0  0  2  0  0  0  0  0  0  0  0  0
   52.2954    7.4047   17.3852 N   0  0  0  0  0  0  0  0  0  0  0  0
   49.4594    8.9212   17.4000 C   0  0  0  0  0  0  0  0  0  0  0  0
   48.8832    5.7190   18.2683 C   0  0  0  0  0  0  0  0  0  0  0  0
   50.1014    7.9560   16.4392 C   0  0  0  0  0  0  0  0  0  0  0  0
   51.6791    7.9867   19.7358 C   0  0  0  0  0  0  0  0  0  0  0  0
   47.9715    5.7346   19.2538 C   0  0  0  0  0  0  0  0  0  0  0  0
   48.2654    6.3016   20.6194 C   0  0  2  0  0  0  0  0  0  0  0  0
   47.9878   10.4438   19.3040 C   0  0  0  0  0  0  0  0  0  0  0  0
   52.7224    7.3812   18.7832 C   0  0  0  0  0  0  0  0  0  0  0  0
   48.7136   10.0295   16.9978 C   0  0  0  0  0  0  0  0  0  0  0  0
   48.0024   10.7975   17.9462 C   0  0  0  0  0  0  0  0  0  0  0  0
   53.3014    6.8071   16.5106 C   0  0  0  0  0  0  0  0  0  0  0  0
   47.0573    6.6950   21.2614 O   0  0  0  0  0  0  0  0  0  0  0  0
   47.2972   11.0807   20.2936 O   0  0  0  0  0  0  0  0  0  0  0  0
   46.5511   12.2301   19.9234 C   0  0  0  0  0  0  0  0  0  0  0  0
   49.5923    7.1911   17.2035 H   0  0  0  0  0  0  0  0  0  0  0  0
   52.8197    4.6473   19.9597 H   0  0  0  0  0  0  0  0  0  0  0  0
   46.5019    6.7128   19.2840 H   0  0  0  0  0  0  0  0  0  0  0  0
   47.4547    6.7660   17.8329 H   0  0  0  0  0  0  0  0  0  0  0  0
   47.7293    8.9566   16.9674 H   0  0  0  0  0  0  0  0  0  0  0  0
   47.4325   10.8835   21.5279 H   0  0  0  0  0  0  0  0  0  0  0  0
   47.3509    8.4721   21.2216 H   0  0  0  0  0  0  0  0  0  0  0  0
   48.8076    4.6690   22.4558 H   0  0  0  0  0  0  0  0  0  0  0  0
   51.1273    4.3079   21.6761 H   0  0  0  0  0  0  0  0  0  0  0  0
   51.6756    7.8102   14.3367 H   0  0  0  0  0  0  0  0  0  0  0  0
   50.7804    8.4824   15.7037 H   0  0  0  0  0  0  0  0  0  0  0  0
   50.3170    6.8882   14.9906 H   0  0  0  0  0  0  0  0  0  0  0  0
   47.9556   10.5246   15.3411 H   0  0  0  0  0  0  0  0  0  0  0  0
   49.5214   10.6828   16.2253 H   0  0  0  0  0  0  0  0  0  0  0  0
   48.8501   12.0482   15.3241 H   0  0  0  0  0  0  0  0  0  0  0  0
   54.4524    3.8359   18.5067 H   0  0  0  0  0  0  0  0  0  0  0  0
   54.9432    5.3894   19.2908 H   0  0  0  0  0  0  0  0  0  0  0  0
   55.6847    4.8687   17.7735 H   0  0  0  0  0  0  0  0  0  0  0  0
   46.4625   13.0352   21.1272 H   0  0  0  0  0  0  0  0  0  0  0  0
   47.4613   14.3974   20.6075 H   0  0  0  0  0  0  0  0  0  0  0  0
   48.2380   13.0616   21.4645 H   0  0  0  0  0  0  0  0  0  0  0  0
   49.9950   10.0877   17.2932 H   0  0  0  0  0  0  0  0  0  0  0  0
   52.6735    8.4108   18.3238 H   0  0  0  0  0  0  0  0  0  0  0  0
   47.5539    9.9010   17.6418 H   0  0  0  0  0  0  0  0  0  0  0  0
   48.5781    8.4045   15.7183 H   0  0  0  0  0  0  0  0  0  0  0  0
   47.0238    7.6188   17.8506 H   0  0  0  0  0  0  0  0  0  0  0  0
   46.7244    8.2194   19.4801 H   0  0  0  0  0  0  0  0  0  0  0  0
   50.7206    8.8778   20.7777 H   0  0  0  0  0  0  0  0  0  0  0  0
   51.7538    9.8530   19.7459 H   0  0  0  0  0  0  0  0  0  0  0  0
   50.4062    7.0256   14.9401 H   0  0  0  0  0  0  0  0  0  0  0  0
   52.4847    8.1545   16.1106 H   0  0  0  0  0  0  0  0  0  0  0  0
   49.8123   11.0391   20.8580 H   0  0  0  0  0  0  0  0  0  0  0  0
   50.0705   11.3580   19.1507 H   0  0  0  0  0  0  0  0  0  0  0  0
   47.0036    5.5279   19.8872 H   0  0  0  0  0  0  0  0  0  0  0  0
   48.6885    3.7927   20.4551 H   0  0  0  0  0  0  0  0  0  0  0  0
   52.1508    4.3933   19.9135 H   0  0  0  0  0  0  0  0  0  0  0  0
   52.0526    5.5815   17.0808 H   0  0  0  0  0  0  0  0  0  0  0  0
   47.5182   11.7858   20.6206 H   0  0  0  0  0  0  0  0  0  0  0  0
   46.4189   10.9333   19.5483 H   0  0  0  0  0  0  0  0  0  0  0  0
   47.6477   12.0214   18.8643 H   0  0  0  0  0  0  0  0  0  0  0  0
   50.8704    5.5147   18.8739 H   0  0  0  0  0  0  0  0  0  0  0  0
   49.9577    7.2204   21.5709 H   0  0  0  0  0  0  0  0  0  0  0  0
   51.0113    5.9920   16.4477 H   0  0  0  0  0  0  0  0  0  0  0  0
   48.6493    5.2414   17.3205 H   0  0  0  0  0  0  0  0  0  0  0  0
   49.2982    7.4707   15.8692 H   0  0  0  0  0  0  0  0  0  0  0  0
   50.7162    8.5036   15.7138 H   0  0  0  0  0  0  0  0  0  0  0  0
   51.9628    7.6830   20.7513 H   0  0  0  0  0  0  0  0  0  0  0  0
   51.7616    9.0814   19.7105 H   0  0  0  0  0  0  0  0  0  0  0  0
   47.0083    5.2622   19.0847 H   0  0  0  0  0  0  0  0  0  0  0  0
   48.6491    5.4551   21.2053 H   0  0  0  0  0  0  0  0  0  0  0  0
   53.6543    7.9495   18.8969 H   0  0  0  0  0  0  0  0  0  0  0  0
   52.9492    6.3542   19.0999 H   0  0  0  0  0  0  0  0  0  0  0  0
   48.6562   10.2971   15.9455 H   0  0  0  0  0  0  0  0  0  0  0  0
   47.4392   11.6495   17.5795 H   0  0  0  0  0  0  0  0  0  0  0  0
   53.4260    5.7358   16.7042 H   0  0  0  0  0  0  0  0  0  0  0  0
   54.2720    7.2971   16.6437 H   0  0  0  0  0  0  0  0  0  0  0  0
   53.0250    6.9401   15.4589 H   0  0  0  0  0  0  0  0  0  0  0  0
   46.3680    6.0457   21.0539 H   0  0  0  0  0  0  0  0  0  0  0  0
   45.7575   11.9747   19.2133 H   0  0  0  0  0  0  0  0  0  0  0  0
   47.2035   13.0131   19.5221 H   0  0  0  0  0  0  0  0  0  0  0  0
   46.0750   12.6253   20.8258 H   0  0  0  0  0  0  0  0  0  0  0  0
  2  1  1  0
  3  1  2  0
  4  1  1  0
  5  3  1  0
  6  7  1  0
  7  4  2  0
  8  2  2  0
  9 12  2  0
 10  2  1  0
 11 14  2  0
 12 13  1  0
 13 10  1  0
 14 15  1  0
 15 13  2  0
 16 21  2  0
 17  5  1  0
 18  6  1  0
 19  9  1  0
 20 11  1  0
 21  4  1  0
 22 17  1  0
 23 19  1  0
 24 18  1  0
 25 20  1  0
 16  8  1  0
  6  5  2  0
 11  9  1  0
 27 26  1  0
 28 26  1  0
 29 27  2  0
 30 26  1  0
 30 31  1  0
 32 28  1  0
 33 27  1  0
 28 34  1  0
 32 35  1  0
 36 41  1  0
 26 37  1  1
 38 39  1  0
 39 30  1  0
 40 29  1  0
 41 37  1  0
 42 33  2  0
 43 42  1  0
 44 40  1  0
 39 45  1  0
 46 36  1  0
 29 31  1  0
 32 36  1  0
 38 34  2  0
 35 33  1  0
 43 40  2  0
 48 47  1  0
 49 47  1  0
 50 48  2  0
 51 47  1  0
 52 51  1  0
 53 49  1  0
 54 62  1  0
 55 48  1  0
 49 56  1  0
 53 57  1  0
 47 58  1  1
 59 60  1  0
 60 51  1  0
 61 50  1  0
 62 58  1  0
 63 55  2  0
 64 63  1  0
 65 54  1  0
 60 66  1  0
 67 61  1  0
 68 67  1  0
 52 50  1  0
 53 54  1  0
 59 56  2  0
 57 55  1  0
 64 61  2  0
  3 69  1  0
  7 70  1  0
 10 71  1  0
 10 72  1  0
 12 73  1  0
 14 74  1  0
 15 75  1  0
 16 76  1  0
 21 77  1  0
 22 78  1  0
 22 79  1  0
 22 80  1  0
 23 81  1  0
 23 82  1  0
 23 83  1  0
 24 84  1  0
 24 85  1  0
 24 86  1  0
 25 87  1  0
 25 88  1  0
 25 89  1  0
 28 90  1  1
 30 91  1  1
 32 92  1  6
 34 93  1  0
 35 94  1  0
 35 95  1  0
 37 96  1  0
 37 97  1  0
 38 98  1  0
 39 99  1  1
 41100  1  0
 41101  1  0
 42102  1  0
 43103  1  0
 44104  1  0
 45105  1  0
 46106  1  0
 46107  1  0
 46108  1  0
 49109  1  1
 51110  1  1
 53111  1  6
 56112  1  0
 57113  1  0
 57114  1  0
 58115  1  0
 58116  1  0
 59117  1  0
 60118  1  1
 62119  1  0
 62120  1  0
 63121  1  0
 64122  1  0
 65123  1  0
 65124  1  0
 65125  1  0
 66126  1  0
 68127  1  0
 68128  1  0
 68129  1  0
M  END
> <Uni-Dock RESULT> 
ENERGY=   -6.661  LOWER_BOUND=    2.864  UPPER_BOUND=    6.727
INTER + INTRA:          -6.661
INTER:                  -6.661
INTRA:                   0.000
UNBOUND:                 0.000

$$$$

     RDKit          3D

129139  0  0  0  0  0  0  0  0999 V2000
   48.2590    6.8952   18.1814 C   0  0  0  0  0  0  0  0  0  0  0  0
   48.2104    5.6088   18.7773 C   0  0  0  0  0  0  0  0  0  0  0  0
   47.9046    8.1077   18.8241 C   0  0  0  0  0  0  0  0  0  0  0  0
   48.6911    6.9633   16.8395 C   0  0  0  0  0  0  0  0  0  0  0  0
   47.9711    9.3413   18.1642 C   0  0  0  0  0  0  0  0  0  0  0  0
   48.4100    9.3905   16.8316 C   0  0  0  0  0  0  0  0  0  0  0  0
   48.7648    8.2045   16.1823 C   0  0  0  0  0  0  0  0  0  0  0  0
   48.5535    4.4689   18.1135 N   0  0  0  0  0  0  0  0  0  0  0  0
   49.7289    6.8688   23.1720 C   0  0  0  0  0  0  0  0  0  0  0  0
   47.7889    5.3924   20.2188 C   0  0  0  0  0  0  0  0  0  0  0  0
   50.9016    6.0912   23.1565 C   0  0  0  0  0  0  0  0  0  0  0  0
   48.7200    6.6348   22.2277 C   0  0  0  0  0  0  0  0  0  0  0  0
   48.8806    5.6572   21.2343 C   0  0  0  0  0  0  0  0  0  0  0  0
   51.0608    5.1149   22.1694 C   0  0  0  0  0  0  0  0  0  0  0  0
   50.0598    4.9014   21.2178 C   0  0  0  0  0  0  0  0  0  0  0  0
   48.9590    4.5850   16.8367 C   0  0  0  0  0  0  0  0  0  0  0  0
   47.6350   10.5454   18.7327 O   0  0  0  0  0  0  0  0  0  0  0  0
   48.4503   10.6357   16.2552 O   0  0  0  0  0  0  0  0  0  0  0  0
   49.6217    7.8027   24.1750 O   0  0  0  0  0  0  0  0  0  0  0  0
   51.8287    6.3737   24.1283 O   0  0  0  0  0  0  0  0  0  0  0  0
   49.0446    5.7895   16.1679 C   0  0  0  0  0  0  0  0  0  0  0  0
   47.1003   10.5349   20.0476 C   0  0  0  0  0  0  0  0  0  0  0  0
   48.8339    8.9478   23.8784 C   0  0  0  0  0  0  0  0  0  0  0  0
   48.9145   10.7327   14.9167 C   0  0  0  0  0  0  0  0  0  0  0  0
   52.9558    5.5150   24.2250 C   0  0  0  0  0  0  0  0  0  0  0  0
   49.6826    8.1190   19.7627 C   0  0  2  0  0  0  0  0  0  0  0  0
   48.9723    7.0439   18.9947 C   0  0  0  0  0  0  0  0  0  0  0  0
   49.0410    8.2173   21.1532 C   0  0  2  0  0  0  0  0  0  0  0  0
   48.8568    7.3905   17.6689 C   0  0  0  0  0  0  0  0  0  0  0  0
   49.4297    9.2646   18.7541 C   0  0  1  0  0  0  0  0  0  0  0  0
   49.2873    8.6656   17.4111 O   0  0  0  0  0  0  0  0  0  0  0  0
   49.1625    6.7845   21.7857 C   0  0  1  0  0  0  0  0  0  0  0  0
   48.3952    5.8931   19.5073 C   0  0  0  0  0  0  0  0  0  0  0  0
   47.6418    8.7827   21.1045 C   0  0  0  0  0  0  0  0  0  0  0  0
   48.3227    5.7240   21.0030 C   0  0  0  0  0  0  0  0  0  0  0  0
   50.5654    6.2869   21.8089 N   0  0  0  0  0  0  0  0  0  0  0  0
   51.1832    7.7558   19.8902 C   0  0  0  0  0  0  0  0  0  0  0  0
   47.2703    9.6551   20.1548 C   0  0  0  0  0  0  0  0  0  0  0  0
   48.1994   10.1620   19.0900 C   0  0  2  0  0  0  0  0  0  0  0  0
   48.2771    6.5313   16.7630 C   0  0  0  0  0  0  0  0  0  0  0  0
   51.5537    7.2267   21.2855 C   0  0  0  0  0  0  0  0  0  0  0  0
   47.7916    5.0155   18.5995 C   0  0  0  0  0  0  0  0  0  0  0  0
   47.7541    5.3256   17.2249 C   0  0  0  0  0  0  0  0  0  0  0  0
   48.1775    6.8511   15.4449 O   0  0  0  0  0  0  0  0  0  0  0  0
   47.4212   10.4565   17.9327 O   0  0  0  0  0  0  0  0  0  0  0  0
   50.9466    5.7831   23.1253 C   0  0  0  0  0  0  0  0  0  0  0  0
   49.5270    7.2269   18.8990 C   0  0  2  0  0  0  0  0  0  0  0  0
   49.4864    7.3208   20.3967 C   0  0  0  0  0  0  0  0  0  0  0  0
   48.1366    7.5979   18.3646 C   0  0  2  0  0  0  0  0  0  0  0  0
   50.2394    6.3159   20.9698 C   0  0  0  0  0  0  0  0  0  0  0  0
   49.9683    5.7475   18.8149 C   0  0  1  0  0  0  0  0  0  0  0  0
   50.7284    5.4410   20.0321 O   0  0  0  0  0  0  0  0  0  0  0  0
   47.8425    9.0459   18.8939 C   0  0  2  0  0  0  0  0  0  0  0  0
   48.8911   10.0254   18.4987 N   0  0  0  0  0  0  0  0  0  0  0  0
   48.7391    8.2097   21.1489 C   0  0  0  0  0  0  0  0  0  0  0  0
   47.0912    6.5645   18.7163 C   0  0  0  0  0  0  0  0  0  0  0  0
   47.7390    9.0941   20.4527 C   0  0  0  0  0  0  0  0  0  0  0  0
   50.5971    8.2052   18.3553 C   0  0  0  0  0  0  0  0  0  0  0  0
   47.4071    5.2648   18.8341 C   0  0  0  0  0  0  0  0  0  0  0  0
   48.7973    4.7430   18.5738 C   0  0  2  0  0  0  0  0  0  0  0  0
   50.3982    6.2267   22.3422 C   0  0  0  0  0  0  0  0  0  0  0  0
   49.9853    9.4597   17.7114 C   0  0  0  0  0  0  0  0  0  0  0  0
   48.8702    8.1358   22.5359 C   0  0  0  0  0  0  0  0  0  0  0  0
   49.7112    7.1664   23.1258 C   0  0  0  0  0  0  0  0  0  0  0  0
   48.3223   11.2045   17.8506 C   0  0  0  0  0  0  0  0  0  0  0  0
   49.0023    3.5166   19.2669 O   0  0  0  0  0  0  0  0  0  0  0  0
   51.1928    5.2194   22.8068 O   0  0  0  0  0  0  0  0  0  0  0  0
   51.3711    5.1337   24.2123 C   0  0  0  0  0  0  0  0  0  0  0  0
   47.5747    8.0724   19.8547 H   0  0  0  0  0  0  0  0  0  0  0  0
   49.1026    8.2219   15.1508 H   0  0  0  0  0  0  0  0  0  0  0  0
   47.4640    4.3499   20.3431 H   0  0  0  0  0  0  0  0  0  0  0  0
   46.8938    5.9878   20.4352 H   0  0  0  0  0  0  0  0  0  0  0  0
   47.7913    7.1948   22.2685 H   0  0  0  0  0  0  0  0  0  0  0  0
   51.9536    4.5023   22.1083 H   0  0  0  0  0  0  0  0  0  0  0  0
   50.2043    4.1317   20.4598 H   0  0  0  0  0  0  0  0  0  0  0  0
   49.2236    3.6522   16.3467 H   0  0  0  0  0  0  0  0  0  0  0  0
   49.3820    5.8038   15.1366 H   0  0  0  0  0  0  0  0  0  0  0  0
   46.8492   11.5657   20.3153 H   0  0  0  0  0  0  0  0  0  0  0  0
   47.8398   10.1750   20.7696 H   0  0  0  0  0  0  0  0  0  0  0  0
   46.1789    9.9451   20.0965 H   0  0  0  0  0  0  0  0  0  0  0  0
   47.7674    8.7150   23.9546 H   0  0  0  0  0  0  0  0  0  0  0  0
   49.0761    9.3629   22.8935 H   0  0  0  0  0  0  0  0  0  0  0  0
   49.0615    9.7125   24.6269 H   0  0  0  0  0  0  0  0  0  0  0  0
   48.2561   10.1897   14.2307 H   0  0  0  0  0  0  0  0  0  0  0  0
   49.9501   10.3869   14.8312 H   0  0  0  0  0  0  0  0  0  0  0  0
   48.8928   11.7888   14.6310 H   0  0  0  0  0  0  0  0  0  0  0  0
   52.6515    4.4771   24.3982 H   0  0  0  0  0  0  0  0  0  0  0  0
   53.5470    5.8356   25.0881 H   0  0  0  0  0  0  0  0  0  0  0  0
   53.5917    5.5988   23.3377 H   0  0  0  0  0  0  0  0  0  0  0  0
   49.6082    8.9208   21.7797 H   0  0  0  0  0  0  0  0  0  0  0  0
   50.3020    9.9269   18.6886 H   0  0  0  0  0  0  0  0  0  0  0  0
   48.7685    6.8356   22.8104 H   0  0  0  0  0  0  0  0  0  0  0  0
   46.9371    8.5015   21.8835 H   0  0  0  0  0  0  0  0  0  0  0  0
   47.2711    5.8319   21.2993 H   0  0  0  0  0  0  0  0  0  0  0  0
   48.6274    4.7069   21.2795 H   0  0  0  0  0  0  0  0  0  0  0  0
   51.4812    7.0175   19.1338 H   0  0  0  0  0  0  0  0  0  0  0  0
   51.8026    8.6436   19.7129 H   0  0  0  0  0  0  0  0  0  0  0  0
   46.2660   10.0723   20.1715 H   0  0  0  0  0  0  0  0  0  0  0  0
   48.5768   11.1259   19.4541 H   0  0  0  0  0  0  0  0  0  0  0  0
   52.5333    6.7375   21.2116 H   0  0  0  0  0  0  0  0  0  0  0  0
   51.6846    8.0723   21.9740 H   0  0  0  0  0  0  0  0  0  0  0  0
   47.3245    4.0986   18.9513 H   0  0  0  0  0  0  0  0  0  0  0  0
   47.2805    4.6403   16.5271 H   0  0  0  0  0  0  0  0  0  0  0  0
   48.6500    7.6975   15.3357 H   0  0  0  0  0  0  0  0  0  0  0  0
   47.4485    9.6555   17.3774 H   0  0  0  0  0  0  0  0  0  0  0  0
   51.9416    5.3258   23.0914 H   0  0  0  0  0  0  0  0  0  0  0  0
   50.2541    5.0008   23.4545 H   0  0  0  0  0  0  0  0  0  0  0  0
   50.9573    6.5777   23.8792 H   0  0  0  0  0  0  0  0  0  0  0  0
   48.1504    7.6276   17.2654 H   0  0  0  0  0  0  0  0  0  0  0  0
   50.6776    5.6017   17.9901 H   0  0  0  0  0  0  0  0  0  0  0  0
   46.8709    9.3604   18.4879 H   0  0  0  0  0  0  0  0  0  0  0  0
   46.0619    6.8868   18.8497 H   0  0  0  0  0  0  0  0  0  0  0  0
   46.7360    8.7508   20.7386 H   0  0  0  0  0  0  0  0  0  0  0  0
   47.8348   10.1251   20.8160 H   0  0  0  0  0  0  0  0  0  0  0  0
   51.2019    7.7147   17.5823 H   0  0  0  0  0  0  0  0  0  0  0  0
   51.2983    8.5109   19.1430 H   0  0  0  0  0  0  0  0  0  0  0  0
   46.6194    4.5521   19.0600 H   0  0  0  0  0  0  0  0  0  0  0  0
   48.8119    4.4848   17.5060 H   0  0  0  0  0  0  0  0  0  0  0  0
   50.7835   10.2038   17.5957 H   0  0  0  0  0  0  0  0  0  0  0  0
   49.6440    9.2160   16.6962 H   0  0  0  0  0  0  0  0  0  0  0  0
   48.3067    8.8113   23.1750 H   0  0  0  0  0  0  0  0  0  0  0  0
   49.7773    7.1533   24.2089 H   0  0  0  0  0  0  0  0  0  0  0  0
   47.8301   10.9526   16.9045 H   0  0  0  0  0  0  0  0  0  0  0  0
   49.0996   11.9491   17.6478 H   0  0  0  0  0  0  0  0  0  0  0  0
   47.5889   11.6876   18.5055 H   0  0  0  0  0  0  0  0  0  0  0  0
   48.1854    2.9961   19.2283 H   0  0  0  0  0  0  0  0  0  0  0  0
   50.4217    4.9337   24.7201 H   0  0  0  0  0  0  0  0  0  0  0  0
   51.8475    6.0377   24.6067 H   0  0  0  0  0  0  0  0  0  0  0  0
   52.0397    4.2915   24.4144 H   0  0  0  0  0  0  0  0  0  0  0  0
  2  1  1  0
  3  1  2  0
  4  1  1  0
  5  3  1  0
  6  7  1  0
  7  4  2  0
  8  2  2  0
  9 12  2  0
 10  2  1  0
 11 14  2  0
 12 13  1  0
 13 10  1  0
 14 15  1  0
 15 13  2  0
 16 21  2  0
 17  5  1  0
 18  6  1  0
 19  9  1  0
 20 11  1  0
 21  4  1  0
 22 17  1  0
 23 19  1  0
 24 18  1  0
 25 20  1  0
 16  8  1  0
  6  5  2  0
 11  9  1  0
 27 26  1  0
 28 26  1  0
 29 27  2  0
 30 26  1  0
 30 31  1  0
 32 28  1  0
 33 27  1  0
 28 34  1  0
 32 35  1  0
 36 41  1  0
 26 37  1  1
 38 39  1  0
 39 30  1  0
 40 29  1  0
 41 37  1  0
 42 33  2  0
 43 42  1  0
 44 40  1  0
 39 45  1  0
 46 36  1  0
 29 31  1  0
 32 36  1  0
 38 34  2  0
 35 33  1  0
 43 40  2  0
 48 47  1  0
 49 47  1  0
 50 48  2  0
 51 47  1  0
 52 51  1  0
 53 49  1  0
 54 62  1  0
 55 48  1  0
 49 56  1  0
 53 57  1  0
 47 58  1  1
 59 60  1  0
 60 51  1  0
 61 50  1  0
 62 58  1  0
 63 55  2  0
 64 63  1  0
 65 54  1  0
 60 66  1  0
 67 61  1  0
 68 67  1  0
 52 50  1  0
 53 54  1  0
 59 56  2  0
 57 55  1  0
 64 61  2  0
  3 69  1  0
  7 70  1  0
 10 71  1  0
 10 72  1  0
 12 73  1  0
 14 74  1  0
 15 75  1  0
 16 76  1  0
 21 77  1  0
 22 78  1  0
 22 79  1  0
 22 80  1  0
 23 81  1  0
 23 82  1  0
 23 83  1  0
 24 84  1  0
 24 85  1  0
 24 86  1  0
 25 87  1  0
 25 88  1  0
 25 89  1  0
 28 90  1  1
 30 91  1  1
 32 92  1  6
 34 93  1  0
 35 94  1  0
 35 95  1  0
 37 96  1  0
 37 97  1  0
 38 98  1  0
 39 99  1  1
 41100  1  0
 41101  1  0
 42102  1  0
 43103  1  0
 44104  1  0
 45105  1  0
 46106  1  0
 46107  1  0
 46108  1  0
 49109  1  1
 51110  1  1
 53111  1  6
 56112  1  0
 57113  1  0
 57114  1  0
 58115  1  0
 58116  1  0
 59117  1  0
 60118  1  1
 62119  1  0
 62120  1  0
 63121  1  0
 64122  1  0
 65123  1  0
 65124  1  0
 65125  1  0
 66126  1  0
 68127  1  0
 68128  1  0
 68129  1  0
M  END
> <Uni-Dock RESULT> 
ENERGY=   -6.634  LOWER_BOUND=    3.045  UPPER_BOUND=    5.461
INTER + INTRA:          -6.634
INTER:                  -6.634
INTRA:                   0.000
UNBOUND:                 0.000

$$$$

     RDKit          3D

129139  0  0  0  0  0  0  0  0999 V2000
   49.8289    6.8906   22.0193 C   0  0  0  0  0  0  0  0  0  0  0  0
   48.6244    6.1413   22.0093 C   0  0  0  0  0  0  0  0  0  0  0  0
   51.0960    6.4064   21.6085 C   0  0  0  0  0  0  0  0  0  0  0  0
   49.7510    8.2218   22.4815 C   0  0  0  0  0  0  0  0  0  0  0  0
   52.2444    7.2068   21.6562 C   0  0  0  0  0  0  0  0  0  0  0  0
   52.1465    8.5310   22.1122 C   0  0  0  0  0  0  0  0  0  0  0  0
   50.9043    9.0257   22.5202 C   0  0  0  0  0  0  0  0  0  0  0  0
   47.4295    6.6497   22.4238 N   0  0  0  0  0  0  0  0  0  0  0  0
   49.3855    3.7389   17.9037 C   0  0  0  0  0  0  0  0  0  0  0  0
   48.5585    4.7082   21.5150 C   0  0  0  0  0  0  0  0  0  0  0  0
   48.2840    4.2721   17.2090 C   0  0  0  0  0  0  0  0  0  0  0  0
   49.4673    3.8725   19.2964 C   0  0  0  0  0  0  0  0  0  0  0  0
   48.4809    4.5709   20.0089 C   0  0  0  0  0  0  0  0  0  0  0  0
   47.2994    4.9649   17.9184 C   0  0  0  0  0  0  0  0  0  0  0  0
   47.3982    5.1128   19.3045 C   0  0  0  0  0  0  0  0  0  0  0  0
   47.4060    7.9230   22.8555 C   0  0  0  0  0  0  0  0  0  0  0  0
   53.4974    6.7909   21.2781 O   0  0  0  0  0  0  0  0  0  0  0  0
   53.3145    9.2521   22.1268 O   0  0  0  0  0  0  0  0  0  0  0  0
   50.3139    3.0549   17.1555 O   0  0  0  0  0  0  0  0  0  0  0  0
   48.2738    4.0791   15.8502 O   0  0  0  0  0  0  0  0  0  0  0  0
   48.5207    8.7359   22.9010 C   0  0  0  0  0  0  0  0  0  0  0  0
   53.6614    5.4335   20.8963 C   0  0  0  0  0  0  0  0  0  0  0  0
   51.6440    3.0607   17.6561 C   0  0  0  0  0  0  0  0  0  0  0  0
   53.2543   10.6045   22.5555 C   0  0  0  0  0  0  0  0  0  0  0  0
   47.1100    4.4812   15.1423 C   0  0  0  0  0  0  0  0  0  0  0  0
   50.5650    6.6738   19.6878 C   0  0  2  0  0  0  0  0  0  0  0  0
   49.7560    6.6765   20.9510 C   0  0  0  0  0  0  0  0  0  0  0  0
   50.8661    5.2159   19.3154 C   0  0  2  0  0  0  0  0  0  0  0  0
   50.1120    7.7355   21.7527 C   0  0  0  0  0  0  0  0  0  0  0  0
   51.7258    7.5536   20.2097 C   0  0  1  0  0  0  0  0  0  0  0  0
   51.1904    8.4305   21.2714 O   0  0  0  0  0  0  0  0  0  0  0  0
   49.4702    4.5066   19.1895 C   0  0  1  0  0  0  0  0  0  0  0  0
   48.8429    5.7181   21.3605 C   0  0  0  0  0  0  0  0  0  0  0  0
   51.8351    4.5640   20.2726 C   0  0  0  0  0  0  0  0  0  0  0  0
   48.7149    4.4499   20.5565 C   0  0  0  0  0  0  0  0  0  0  0  0
   48.5644    5.1938   18.2284 N   0  0  0  0  0  0  0  0  0  0  0  0
   49.7578    7.3591   18.5571 C   0  0  0  0  0  0  0  0  0  0  0  0
   52.7729    5.2771   20.9155 C   0  0  0  0  0  0  0  0  0  0  0  0
   52.9611    6.7544   20.7264 C   0  0  2  0  0  0  0  0  0  0  0  0
   49.4672    7.9641   22.9473 C   0  0  0  0  0  0  0  0  0  0  0  0
   49.1500    6.3553   17.5636 C   0  0  0  0  0  0  0  0  0  0  0  0
   48.1878    5.9310   22.5787 C   0  0  0  0  0  0  0  0  0  0  0  0
   48.4848    7.0666   23.3594 C   0  0  0  0  0  0  0  0  0  0  0  0
   49.7929    9.0210   23.7388 O   0  0  0  0  0  0  0  0  0  0  0  0
   53.4732    7.2908   21.9438 O   0  0  0  0  0  0  0  0  0  0  0  0
   47.9768    4.2639   17.2681 C   0  0  0  0  0  0  0  0  0  0  0  0
   49.7585    7.1045   20.5421 C   0  0  2  0  0  0  0  0  0  0  0  0
   49.8707    5.9031   19.6489 C   0  0  0  0  0  0  0  0  0  0  0  0
   50.5364    6.8085   21.8320 C   0  0  2  0  0  0  0  0  0  0  0  0
   48.6867    5.6834   18.9744 C   0  0  0  0  0  0  0  0  0  0  0  0
   48.2145    7.1411   20.6153 C   0  0  1  0  0  0  0  0  0  0  0  0
   47.6971    6.5443   19.3786 O   0  0  0  0  0  0  0  0  0  0  0  0
   52.0081    6.4943   21.3864 C   0  0  2  0  0  0  0  0  0  0  0  0
   52.6137    7.5954   20.5890 N   0  0  0  0  0  0  0  0  0  0  0  0
   50.9520    5.0455   19.5496 C   0  0  0  0  0  0  0  0  0  0  0  0
   49.8781    5.7337   22.6662 C   0  0  0  0  0  0  0  0  0  0  0  0
   52.0968    5.1996   20.5155 C   0  0  0  0  0  0  0  0  0  0  0  0
   50.3553    8.3362   19.8180 C   0  0  0  0  0  0  0  0  0  0  0  0
   48.5452    5.5718   22.6698 C   0  0  0  0  0  0  0  0  0  0  0  0
   47.6183    6.4735   21.8949 C   0  0  2  0  0  0  0  0  0  0  0  0
   48.5625    4.6610   18.0493 C   0  0  0  0  0  0  0  0  0  0  0  0
   51.7327    8.7407   20.3671 C   0  0  0  0  0  0  0  0  0  0  0  0
   50.8510    3.9986   18.6331 C   0  0  0  0  0  0  0  0  0  0  0  0
   49.6737    3.8225   17.8729 C   0  0  0  0  0  0  0  0  0  0  0  0
   53.9062    8.0134   21.1263 C   0  0  0  0  0  0  0  0  0  0  0  0
   46.3934    5.8029   21.6188 O   0  0  0  0  0  0  0  0  0  0  0  0
   47.3625    4.5512   17.4090 O   0  0  0  0  0  0  0  0  0  0  0  0
   47.2358    3.5141   16.4482 C   0  0  0  0  0  0  0  0  0  0  0  0
   51.1713    5.3883   21.2479 H   0  0  0  0  0  0  0  0  0  0  0  0
   50.8095   10.0455   22.8797 H   0  0  0  0  0  0  0  0  0  0  0  0
   47.6679    4.2245   21.9400 H   0  0  0  0  0  0  0  0  0  0  0  0
   49.4024    4.1382   21.9217 H   0  0  0  0  0  0  0  0  0  0  0  0
   50.2866    3.4168   19.8430 H   0  0  0  0  0  0  0  0  0  0  0  0
   46.4409    5.4063   17.4241 H   0  0  0  0  0  0  0  0  0  0  0  0
   46.6163    5.6537   19.8372 H   0  0  0  0  0  0  0  0  0  0  0  0
   46.4337    8.2872   23.1749 H   0  0  0  0  0  0  0  0  0  0  0  0
   48.4231    9.7548   23.2614 H   0  0  0  0  0  0  0  0  0  0  0  0
   54.7213    5.2732   20.6766 H   0  0  0  0  0  0  0  0  0  0  0  0
   53.0962    5.2104   19.9862 H   0  0  0  0  0  0  0  0  0  0  0  0
   53.3849    4.7561   21.7109 H   0  0  0  0  0  0  0  0  0  0  0  0
   51.7519    2.3467   18.4782 H   0  0  0  0  0  0  0  0  0  0  0  0
   51.9573    4.0648   17.9639 H   0  0  0  0  0  0  0  0  0  0  0  0
   52.3065    2.7389   16.8472 H   0  0  0  0  0  0  0  0  0  0  0  0
   52.9360   10.6728   23.6010 H   0  0  0  0  0  0  0  0  0  0  0  0
   52.6054   11.1978   21.9027 H   0  0  0  0  0  0  0  0  0  0  0  0
   54.2636   11.0218   22.4881 H   0  0  0  0  0  0  0  0  0  0  0  0
   46.2178    3.9712   15.5210 H   0  0  0  0  0  0  0  0  0  0  0  0
   47.2388    4.1906   14.0953 H   0  0  0  0  0  0  0  0  0  0  0  0
   46.9875    5.5688   15.1720 H   0  0  0  0  0  0  0  0  0  0  0  0
   51.3649    5.1735   18.3364 H   0  0  0  0  0  0  0  0  0  0  0  0
   52.0863    8.2302   19.4249 H   0  0  0  0  0  0  0  0  0  0  0  0
   49.6474    3.4731   18.8603 H   0  0  0  0  0  0  0  0  0  0  0  0
   51.7904    3.4861   20.4083 H   0  0  0  0  0  0  0  0  0  0  0  0
   49.1438    3.6337   21.1523 H   0  0  0  0  0  0  0  0  0  0  0  0
   47.6553    4.2089   20.4047 H   0  0  0  0  0  0  0  0  0  0  0  0
   48.9583    7.9924   18.9644 H   0  0  0  0  0  0  0  0  0  0  0  0
   50.4101    8.0237   17.9773 H   0  0  0  0  0  0  0  0  0  0  0  0
   53.4796    4.7702   21.5687 H   0  0  0  0  0  0  0  0  0  0  0  0
   53.7642    6.8631   19.9866 H   0  0  0  0  0  0  0  0  0  0  0  0
   48.3821    6.8801   16.9811 H   0  0  0  0  0  0  0  0  0  0  0  0
   49.9188    6.0416   16.8447 H   0  0  0  0  0  0  0  0  0  0  0  0
   47.4621    5.2084   22.9446 H   0  0  0  0  0  0  0  0  0  0  0  0
   47.9740    7.2227   24.3058 H   0  0  0  0  0  0  0  0  0  0  0  0
   50.4515    9.5394   23.2399 H   0  0  0  0  0  0  0  0  0  0  0  0
   52.6988    7.5969   22.4513 H   0  0  0  0  0  0  0  0  0  0  0  0
   47.2348    4.7716   16.6421 H   0  0  0  0  0  0  0  0  0  0  0  0
   47.4485    3.4564   17.7866 H   0  0  0  0  0  0  0  0  0  0  0  0
   48.7348    3.8197   16.6138 H   0  0  0  0  0  0  0  0  0  0  0  0
   50.5527    7.6999   22.4758 H   0  0  0  0  0  0  0  0  0  0  0  0
   47.8513    8.1768   20.6072 H   0  0  0  0  0  0  0  0  0  0  0  0
   52.6040    6.3241   22.2940 H   0  0  0  0  0  0  0  0  0  0  0  0
   50.5030    5.1011   23.2911 H   0  0  0  0  0  0  0  0  0  0  0  0
   52.0815    4.3332   21.1898 H   0  0  0  0  0  0  0  0  0  0  0  0
   53.0506    5.1609   19.9742 H   0  0  0  0  0  0  0  0  0  0  0  0
   49.6968    9.2051   19.9417 H   0  0  0  0  0  0  0  0  0  0  0  0
   50.4354    8.1657   18.7362 H   0  0  0  0  0  0  0  0  0  0  0  0
   48.1117    4.8057   23.3059 H   0  0  0  0  0  0  0  0  0  0  0  0
   47.3607    7.2853   22.5889 H   0  0  0  0  0  0  0  0  0  0  0  0
   52.1937    9.4307   19.6490 H   0  0  0  0  0  0  0  0  0  0  0  0
   51.5990    9.3101   21.2968 H   0  0  0  0  0  0  0  0  0  0  0  0
   51.6718    3.2955   18.5137 H   0  0  0  0  0  0  0  0  0  0  0  0
   49.6485    2.9927   17.1740 H   0  0  0  0  0  0  0  0  0  0  0  0
   53.8117    8.4400   22.1312 H   0  0  0  0  0  0  0  0  0  0  0  0
   54.3734    8.7612   20.4764 H   0  0  0  0  0  0  0  0  0  0  0  0
   54.5965    7.1640   21.1732 H   0  0  0  0  0  0  0  0  0  0  0  0
   46.1499    5.2681   22.3898 H   0  0  0  0  0  0  0  0  0  0  0  0
   47.3419    2.5286   16.9136 H   0  0  0  0  0  0  0  0  0  0  0  0
   47.9517    3.6436   15.6294 H   0  0  0  0  0  0  0  0  0  0  0  0
   46.2299    3.5736   16.0218 H   0  0  0  0  0  0  0  0  0  0  0  0
  2  1  1  0
  3  1  2  0
  4  1  1  0
  5  3  1  0
  6  7  1  0
  7  4  2  0
  8  2  2  0
  9 12  2  0
 10  2  1  0
 11 14  2  0
 12 13  1  0
 13 10  1  0
 14 15  1  0
 15 13  2  0
 16 21  2  0
 17  5  1  0
 18  6  1  0
 19  9  1  0
 20 11  1  0
 21  4  1  0
 22 17  1  0
 23 19  1  0
 24 18  1  0
 25 20  1  0
 16  8  1  0
  6  5  2  0
 11  9  1  0
 27 26  1  0
 28 26  1  0
 29 27  2  0
 30 26  1  0
 30 31  1  0
 32 28  1  0
 33 27  1  0
 28 34  1  0
 32 35  1  0
 36 41  1  0
 26 37  1  1
 38 39  1  0
 39 30  1  0
 40 29  1  0
 41 37  1  0
 42 33  2  0
 43 42  1  0
 44 40  1  0
 39 45  1  0
 46 36  1  0
 29 31  1  0
 32 36  1  0
 38 34  2  0
 35 33  1  0
 43 40  2  0
 48 47  1  0
 49 47  1  0
 50 48  2  0
 51 47  1  0
 52 51  1  0
 53 49  1  0
 54 62  1  0
 55 48  1  0
 49 56  1  0
 53 57  1  0
 47 58  1  1
 59 60  1  0
 60 51  1  0
 61 50  1  0
 62 58  1  0
 63 55  2  0
 64 63  1  0
 65 54  1  0
 60 66  1  0
 67 61  1  0
 68 67  1  0
 52 50  1  0
 53 54  1  0
 59 56  2  0
 57 55  1  0
 64 61  2  0
  3 69  1  0
  7 70  1  0
 10 71  1  0
 10 72  1  0
 12 73  1  0
 14 74  1  0
 15 75  1  0
 16 76  1  0
 21 77  1  0
 22 78  1  0
 22 79  1  0
 22 80  1  0
 23 81  1  0
 23 82  1  0
 23 83  1  0
 24 84  1  0
 24 85  1  0
 24 86  1  0
 25 87  1  0
 25 88  1  0
 25 89  1  0
 28 90  1  1
 30 91  1  1
 32 92  1  6
 34 93  1  0
 35 94  1  0
 35 95  1  0
 37 96  1  0
 37 97  1  0
 38 98  1  0
 39 99  1  1
 41100  1  0
 41101  1  0
 42102  1  0
 43103  1  0
 44104  1  0
 45105  1  0
 46106  1  0
 46107  1  0
 46108  1  0
 49109  1  1
 51110  1  1
 53111  1  6
 56112  1  0
 57113  1  0
 57114  1  0
 58115  1  0
 58116  1  0
 59117  1  0
 60118  1  1
 62119  1  0
 62120  1  0
 63121  1  0
 64122  1  0
 65123  1  0
 65124  1  0
 65125  1  0
 66126  1  0
 68127  1  0
 68128  1  0
 68129  1  0
M  END
> <Uni-Dock RESULT> 
ENERGY=   -6.620  LOWER_BOUND=    3.800  UPPER_BOUND=    6.180
INTER + INTRA:          -6.620
INTER:                  -6.620
INTRA:                   0.000
UNBOUND:                 0.000

$$$$
