
     RDKit          3D

129139  0  0  0  0  0  0  0  0999 V2000
   50.6122    5.9632   20.3366 C   0  0  0  0  0  0  0  0  0  0  0  0
   50.4416    7.1189   21.1446 C   0  0  0  0  0  0  0  0  0  0  0  0
   49.5715    5.2588   19.6783 C   0  0  0  0  0  0  0  0  0  0  0  0
   51.9300    5.4832   20.1777 C   0  0  0  0  0  0  0  0  0  0  0  0
   49.8246    4.1354   18.8814 C   0  0  0  0  0  0  0  0  0  0  0  0
   51.1425    3.6755   18.7335 C   0  0  0  0  0  0  0  0  0  0  0  0
   52.1804    4.3501   19.3827 C   0  0  0  0  0  0  0  0  0  0  0  0
   51.4781    7.7491   21.7647 N   0  0  0  0  0  0  0  0  0  0  0  0
   48.4523    9.8803   18.2310 C   0  0  0  0  0  0  0  0  0  0  0  0
   49.0907    7.7682   21.3762 C   0  0  0  0  0  0  0  0  0  0  0  0
   48.1102   11.1220   18.7978 C   0  0  0  0  0  0  0  0  0  0  0  0
   48.7675    8.7988   19.0649 C   0  0  0  0  0  0  0  0  0  0  0  0
   48.7782    8.9374   20.4621 C   0  0  0  0  0  0  0  0  0  0  0  0
   48.1167   11.2638   20.1881 C   0  0  0  0  0  0  0  0  0  0  0  0
   48.4488   10.1828   21.0103 C   0  0  0  0  0  0  0  0  0  0  0  0
   52.7142    7.2528   21.5852 C   0  0  0  0  0  0  0  0  0  0  0  0
   48.8589    3.4250   18.2121 O   0  0  0  0  0  0  0  0  0  0  0  0
   51.3101    2.5695   17.9380 O   0  0  0  0  0  0  0  0  0  0  0  0
   48.4249    9.8078   16.8590 O   0  0  0  0  0  0  0  0  0  0  0  0
   47.7970   12.1248   17.9144 O   0  0  0  0  0  0  0  0  0  0  0  0
   52.9865    6.1419   20.8126 C   0  0  0  0  0  0  0  0  0  0  0  0
   47.5166    3.8827   18.2928 C   0  0  0  0  0  0  0  0  0  0  0  0
   49.0900    8.7059   16.2561 C   0  0  0  0  0  0  0  0  0  0  0  0
   52.6281    2.0704   17.7635 C   0  0  0  0  0  0  0  0  0  0  0  0
   47.4101   13.3794   18.4550 C   0  0  0  0  0  0  0  0  0  0  0  0
   48.8099    7.1761   19.1981 C   0  0  2  0  0  0  0  0  0  0  0  0
   50.0536    6.5309   18.6620 C   0  0  0  0  0  0  0  0  0  0  0  0
   49.1807    8.0029   20.4350 C   0  0  2  0  0  0  0  0  0  0  0  0
   49.7734    5.2750   18.1674 C   0  0  0  0  0  0  0  0  0  0  0  0
   48.0056    5.8747   19.4035 C   0  0  1  0  0  0  0  0  0  0  0  0
   48.4749    4.8982   18.4068 O   0  0  0  0  0  0  0  0  0  0  0  0
   50.2825    9.0155   19.9601 C   0  0  1  0  0  0  0  0  0  0  0  0
   51.3420    7.0359   18.7203 C   0  0  0  0  0  0  0  0  0  0  0  0
   49.5628    7.1457   21.6165 C   0  0  0  0  0  0  0  0  0  0  0  0
   51.5941    8.2895   19.5173 C   0  0  0  0  0  0  0  0  0  0  0  0
   49.8390    9.8440   18.8052 N   0  0  0  0  0  0  0  0  0  0  0  0
   48.2009    8.0921   18.1068 C   0  0  0  0  0  0  0  0  0  0  0  0
   49.0710    5.9082   21.7798 C   0  0  0  0  0  0  0  0  0  0  0  0
   48.0960    5.2645   20.8366 C   0  0  2  0  0  0  0  0  0  0  0  0
   50.7626    4.5107   17.5888 C   0  0  0  0  0  0  0  0  0  0  0  0
   48.4714    9.5847   18.3604 C   0  0  0  0  0  0  0  0  0  0  0  0
   52.3571    6.2710   18.1393 C   0  0  0  0  0  0  0  0  0  0  0  0
   52.0644    5.0209   17.5552 C   0  0  0  0  0  0  0  0  0  0  0  0
   50.4677    3.2744   17.1030 O   0  0  0  0  0  0  0  0  0  0  0  0
   48.3770    3.8653   20.8150 O   0  0  0  0  0  0  0  0  0  0  0  0
   50.0659   11.2682   19.0340 C   0  0  0  0  0  0  0  0  0  0  0  0
   50.7378    7.0571   18.5307 C   0  0  2  0  0  0  0  0  0  0  0  0
   49.4566    7.5259   19.1551 C   0  0  0  0  0  0  0  0  0  0  0  0
   51.4330    6.0876   19.5011 C   0  0  2  0  0  0  0  0  0  0  0  0
   49.2123    8.8473   18.8417 C   0  0  0  0  0  0  0  0  0  0  0  0
   51.3622    8.4539   18.3292 C   0  0  1  0  0  0  0  0  0  0  0  0
   50.2611    9.4155   18.1567 O   0  0  0  0  0  0  0  0  0  0  0  0
   50.3935    4.9324   19.7521 C   0  0  2  0  0  0  0  0  0  0  0  0
   50.1230    4.1920   18.4877 N   0  0  0  0  0  0  0  0  0  0  0  0
   48.6418    6.8020   20.0036 C   0  0  0  0  0  0  0  0  0  0  0  0
   51.9506    6.7831   20.7373 C   0  0  0  0  0  0  0  0  0  0  0  0
   49.1348    5.4781   20.5180 C   0  0  0  0  0  0  0  0  0  0  0  0
   50.3870    6.3522   17.1971 C   0  0  0  0  0  0  0  0  0  0  0  0
   52.3342    8.0690   20.7132 C   0  0  0  0  0  0  0  0  0  0  0  0
   52.3104    8.9202   19.4762 C   0  0  2  0  0  0  0  0  0  0  0  0
   48.0621    9.4897   19.2645 C   0  0  0  0  0  0  0  0  0  0  0  0
   50.5945    4.8354   17.2618 C   0  0  0  0  0  0  0  0  0  0  0  0
   47.4744    7.4235   20.4473 C   0  0  0  0  0  0  0  0  0  0  0  0
   47.1763    8.7495   20.0610 C   0  0  0  0  0  0  0  0  0  0  0  0
   48.7973    3.6120   18.3402 C   0  0  0  0  0  0  0  0  0  0  0  0
   52.0523   10.2653   19.8770 O   0  0  0  0  0  0  0  0  0  0  0  0
   47.9166   10.7937   18.8914 O   0  0  0  0  0  0  0  0  0  0  0  0
   46.7411   11.4604   19.3302 C   0  0  0  0  0  0  0  0  0  0  0  0
   48.5514    5.6058   19.7936 H   0  0  0  0  0  0  0  0  0  0  0  0
   53.2059    4.0089   19.2813 H   0  0  0  0  0  0  0  0  0  0  0  0
   48.2725    7.0427   21.3255 H   0  0  0  0  0  0  0  0  0  0  0  0
   49.0788    8.1137   22.4194 H   0  0  0  0  0  0  0  0  0  0  0  0
   49.0053    7.8346   18.6325 H   0  0  0  0  0  0  0  0  0  0  0  0
   47.8710   12.2053   20.6673 H   0  0  0  0  0  0  0  0  0  0  0  0
   48.4496   10.3257   22.0891 H   0  0  0  0  0  0  0  0  0  0  0  0
   53.5090    7.7909   22.0937 H   0  0  0  0  0  0  0  0  0  0  0  0
   54.0121    5.8014   20.7124 H   0  0  0  0  0  0  0  0  0  0  0  0
   47.1444    3.8335   19.3212 H   0  0  0  0  0  0  0  0  0  0  0  0
   46.8983    3.2159   17.6841 H   0  0  0  0  0  0  0  0  0  0  0  0
   47.4176    4.8932   17.8827 H   0  0  0  0  0  0  0  0  0  0  0  0
   48.5285    7.7792   16.4115 H   0  0  0  0  0  0  0  0  0  0  0  0
   50.1197    8.6099   16.6170 H   0  0  0  0  0  0  0  0  0  0  0  0
   49.1322    8.8903   15.1782 H   0  0  0  0  0  0  0  0  0  0  0  0
   52.5698    1.1951   17.1095 H   0  0  0  0  0  0  0  0  0  0  0  0
   53.0566    1.7451   18.7168 H   0  0  0  0  0  0  0  0  0  0  0  0
   53.2684    2.8102   17.2722 H   0  0  0  0  0  0  0  0  0  0  0  0
   47.1783   14.0467   17.6194 H   0  0  0  0  0  0  0  0  0  0  0  0
   48.2275   13.8334   19.0248 H   0  0  0  0  0  0  0  0  0  0  0  0
   46.5056   13.2857   19.0650 H   0  0  0  0  0  0  0  0  0  0  0  0
   48.3079    8.5777   20.7771 H   0  0  0  0  0  0  0  0  0  0  0  0
   46.9421    6.0378   19.1882 H   0  0  0  0  0  0  0  0  0  0  0  0
   50.5307    9.6654   20.8110 H   0  0  0  0  0  0  0  0  0  0  0  0
   50.2246    7.5643   22.3710 H   0  0  0  0  0  0  0  0  0  0  0  0
   52.1494    8.0037   20.4199 H   0  0  0  0  0  0  0  0  0  0  0  0
   52.2402    8.9702   18.9491 H   0  0  0  0  0  0  0  0  0  0  0  0
   47.1115    7.9675   18.0752 H   0  0  0  0  0  0  0  0  0  0  0  0
   48.5691    7.8242   17.1075 H   0  0  0  0  0  0  0  0  0  0  0  0
   49.3449    5.3336   22.6617 H   0  0  0  0  0  0  0  0  0  0  0  0
   47.1088    5.3656   21.3045 H   0  0  0  0  0  0  0  0  0  0  0  0
   48.2731   10.1267   17.4273 H   0  0  0  0  0  0  0  0  0  0  0  0
   47.7485    9.9653   19.0945 H   0  0  0  0  0  0  0  0  0  0  0  0
   53.3855    6.6241   18.1582 H   0  0  0  0  0  0  0  0  0  0  0  0
   52.8755    4.4471   17.1169 H   0  0  0  0  0  0  0  0  0  0  0  0
   51.2771    2.8839   16.7370 H   0  0  0  0  0  0  0  0  0  0  0  0
   48.6289    3.6488   19.8942 H   0  0  0  0  0  0  0  0  0  0  0  0
   49.8368   11.8466   18.1323 H   0  0  0  0  0  0  0  0  0  0  0  0
   51.1194   11.4585   19.2681 H   0  0  0  0  0  0  0  0  0  0  0  0
   49.4526   11.6527   19.8567 H   0  0  0  0  0  0  0  0  0  0  0  0
   52.3290    5.6568   19.0315 H   0  0  0  0  0  0  0  0  0  0  0  0
   51.9408    8.4899   17.3978 H   0  0  0  0  0  0  0  0  0  0  0  0
   50.8600    4.1958   20.4203 H   0  0  0  0  0  0  0  0  0  0  0  0
   52.0511    6.2082   21.6544 H   0  0  0  0  0  0  0  0  0  0  0  0
   49.4265    5.6303   21.5667 H   0  0  0  0  0  0  0  0  0  0  0  0
   48.3176    4.7515   20.5467 H   0  0  0  0  0  0  0  0  0  0  0  0
   51.0281    6.7292   16.3906 H   0  0  0  0  0  0  0  0  0  0  0  0
   49.3544    6.5566   16.8858 H   0  0  0  0  0  0  0  0  0  0  0  0
   52.7365    8.5271   21.6136 H   0  0  0  0  0  0  0  0  0  0  0  0
   53.3358    8.9136   19.0846 H   0  0  0  0  0  0  0  0  0  0  0  0
   50.1576    4.3715   16.3682 H   0  0  0  0  0  0  0  0  0  0  0  0
   51.6692    4.6280   17.1701 H   0  0  0  0  0  0  0  0  0  0  0  0
   46.7984    6.9018   21.1212 H   0  0  0  0  0  0  0  0  0  0  0  0
   46.2570    9.1864   20.4386 H   0  0  0  0  0  0  0  0  0  0  0  0
   48.0239    4.3738   18.1953 H   0  0  0  0  0  0  0  0  0  0  0  0
   48.5403    2.9945   19.2072 H   0  0  0  0  0  0  0  0  0  0  0  0
   48.7647    2.9364   17.4776 H   0  0  0  0  0  0  0  0  0  0  0  0
   51.1802   10.5010   19.5030 H   0  0  0  0  0  0  0  0  0  0  0  0
   46.7765   12.4867   18.9515 H   0  0  0  0  0  0  0  0  0  0  0  0
   45.8425   10.9854   18.9228 H   0  0  0  0  0  0  0  0  0  0  0  0
   46.7007   11.5111   20.4233 H   0  0  0  0  0  0  0  0  0  0  0  0
  2  1  1  0
  3  1  2  0
  4  1  1  0
  5  3  1  0
  6  7  1  0
  7  4  2  0
  8  2  2  0
  9 12  2  0
 10  2  1  0
 11 14  2  0
 12 13  1  0
 13 10  1  0
 14 15  1  0
 15 13  2  0
 16 21  2  0
 17  5  1  0
 18  6  1  0
 19  9  1  0
 20 11  1  0
 21  4  1  0
 22 17  1  0
 23 19  1  0
 24 18  1  0
 25 20  1  0
 16  8  1  0
  6  5  2  0
 11  9  1  0
 27 26  1  0
 28 26  1  0
 29 27  2  0
 30 26  1  0
 30 31  1  0
 32 28  1  0
 33 27  1  0
 28 34  1  0
 32 35  1  0
 36 41  1  0
 26 37  1  6
 38 39  1  0
 39 30  1  0
 40 29  1  0
 41 37  1  0
 42 33  2  0
 43 42  1  0
 44 40  1  0
 39 45  1  0
 46 36  1  0
 29 31  1  0
 32 36  1  0
 38 34  2  0
 35 33  1  0
 43 40  2  0
 48 47  1  0
 49 47  1  0
 50 48  2  0
 51 47  1  0
 52 51  1  0
 53 49  1  0
 54 62  1  0
 55 48  1  0
 49 56  1  0
 53 57  1  0
 47 58  1  6
 59 60  1  0
 60 51  1  0
 61 50  1  0
 62 58  1  0
 63 55  2  0
 64 63  1  0
 65 54  1  0
 60 66  1  0
 67 61  1  0
 68 67  1  0
 52 50  1  0
 53 54  1  0
 59 56  2  0
 57 55  1  0
 64 61  2  0
  3 69  1  0
  7 70  1  0
 10 71  1  0
 10 72  1  0
 12 73  1  0
 14 74  1  0
 15 75  1  0
 16 76  1  0
 21 77  1  0
 22 78  1  0
 22 79  1  0
 22 80  1  0
 23 81  1  0
 23 82  1  0
 23 83  1  0
 24 84  1  0
 24 85  1  0
 24 86  1  0
 25 87  1  0
 25 88  1  0
 25 89  1  0
 28 90  1  1
 30 91  1  6
 32 92  1  1
 34 93  1  0
 35 94  1  0
 35 95  1  0
 37 96  1  0
 37 97  1  0
 38 98  1  0
 39 99  1  1
 41100  1  0
 41101  1  0
 42102  1  0
 43103  1  0
 44104  1  0
 45105  1  0
 46106  1  0
 46107  1  0
 46108  1  0
 49109  1  6
 51110  1  6
 53111  1  1
 56112  1  0
 57113  1  0
 57114  1  0
 58115  1  0
 58116  1  0
 59117  1  0
 60118  1  6
 62119  1  0
 62120  1  0
 63121  1  0
 64122  1  0
 65123  1  0
 65124  1  0
 65125  1  0
 66126  1  0
 68127  1  0
 68128  1  0
 68129  1  0
M  END
> <Uni-Dock RESULT> 
ENERGY=   -5.686  LOWER_BOUND=    0.000  UPPER_BOUND=    0.000
INTER + INTRA:          -5.686
INTER:                  -5.686
INTRA:                   0.000
UNBOUND:                 0.000

$$$$

     RDKit          3D

129139  0  0  0  0  0  0  0  0999 V2000
   50.4639    5.2640   20.9928 C   0  0  0  0  0  0  0  0  0  0  0  0
   49.6007    5.9033   21.9220 C   0  0  0  0  0  0  0  0  0  0  0  0
   50.1600    5.0047   19.6314 C   0  0  0  0  0  0  0  0  0  0  0  0
   51.7288    4.8583   21.4698 C   0  0  0  0  0  0  0  0  0  0  0  0
   51.0754    4.3847   18.7720 C   0  0  0  0  0  0  0  0  0  0  0  0
   52.3294    3.9915   19.2650 C   0  0  0  0  0  0  0  0  0  0  0  0
   52.6435    4.2290   20.6062 C   0  0  0  0  0  0  0  0  0  0  0  0
   49.9404    6.1157   23.2241 N   0  0  0  0  0  0  0  0  0  0  0  0
   48.8834    9.8040   19.8382 C   0  0  0  0  0  0  0  0  0  0  0  0
   48.2274    6.4248   21.5444 C   0  0  0  0  0  0  0  0  0  0  0  0
   47.9911   10.6412   20.5330 C   0  0  0  0  0  0  0  0  0  0  0  0
   48.9576    8.4432   20.1655 C   0  0  0  0  0  0  0  0  0  0  0  0
   48.1768    7.9007   21.1987 C   0  0  0  0  0  0  0  0  0  0  0  0
   47.2099   10.1050   21.5603 C   0  0  0  0  0  0  0  0  0  0  0  0
   47.3038    8.7494   21.8897 C   0  0  0  0  0  0  0  0  0  0  0  0
   51.1548    5.7092   23.6318 C   0  0  0  0  0  0  0  0  0  0  0  0
   50.8393    4.1221   17.4452 O   0  0  0  0  0  0  0  0  0  0  0  0
   53.1711    3.3901   18.3628 O   0  0  0  0  0  0  0  0  0  0  0  0
   49.6206   10.3934   18.8394 O   0  0  0  0  0  0  0  0  0  0  0  0
   47.9650   11.9564   20.1406 O   0  0  0  0  0  0  0  0  0  0  0  0
   52.0695    5.0878   22.8057 C   0  0  0  0  0  0  0  0  0  0  0  0
   49.6025    4.5464   16.8900 C   0  0  0  0  0  0  0  0  0  0  0  0
   50.7569    9.6817   18.3681 C   0  0  0  0  0  0  0  0  0  0  0  0
   54.4494    2.9749   18.8214 C   0  0  0  0  0  0  0  0  0  0  0  0
   47.0476   12.8194   20.7959 C   0  0  0  0  0  0  0  0  0  0  0  0
   49.3266    6.9521   19.6243 C   0  0  2  0  0  0  0  0  0  0  0  0
   50.7771    6.5838   19.7283 C   0  0  0  0  0  0  0  0  0  0  0  0
   48.7492    7.0742   21.0394 C   0  0  2  0  0  0  0  0  0  0  0  0
   51.1342    5.7277   18.7083 C   0  0  0  0  0  0  0  0  0  0  0  0
   48.8959    5.7471   18.7610 C   0  0  1  0  0  0  0  0  0  0  0  0
   50.0561    5.3415   17.9506 O   0  0  0  0  0  0  0  0  0  0  0  0
   49.6368    8.1400   21.7749 C   0  0  1  0  0  0  0  0  0  0  0  0
   51.6541    6.9417   20.7388 C   0  0  0  0  0  0  0  0  0  0  0  0
   48.6330    5.7424   21.7389 C   0  0  0  0  0  0  0  0  0  0  0  0
   51.1118    7.6532   21.9512 C   0  0  0  0  0  0  0  0  0  0  0  0
   49.6965    9.4367   21.0457 N   0  0  0  0  0  0  0  0  0  0  0  0
   49.1971    8.3029   18.8765 C   0  0  0  0  0  0  0  0  0  0  0  0
   48.4601    4.5995   21.0578 C   0  0  0  0  0  0  0  0  0  0  0  0
   48.3476    4.5259   19.5623 C   0  0  2  0  0  0  0  0  0  0  0  0
   52.4330    5.2865   18.5834 C   0  0  0  0  0  0  0  0  0  0  0  0
   48.9030    9.4819   19.8194 C   0  0  0  0  0  0  0  0  0  0  0  0
   52.9752    6.4998   20.6274 C   0  0  0  0  0  0  0  0  0  0  0  0
   53.3690    5.6920   19.5402 C   0  0  0  0  0  0  0  0  0  0  0  0
   52.7685    4.4441   17.5688 O   0  0  0  0  0  0  0  0  0  0  0  0
   48.9359    3.2939   19.1460 O   0  0  0  0  0  0  0  0  0  0  0  0
   49.3980   10.5693   21.9177 C   0  0  0  0  0  0  0  0  0  0  0  0
   51.2657    7.0776   20.2570 C   0  0  2  0  0  0  0  0  0  0  0  0
   49.7817    7.2507   20.1204 C   0  0  0  0  0  0  0  0  0  0  0  0
   51.5434    5.7333   20.9502 C   0  0  2  0  0  0  0  0  0  0  0  0
   49.4232    8.5718   20.2942 C   0  0  0  0  0  0  0  0  0  0  0  0
   51.5259    8.3728   21.0550 C   0  0  1  0  0  0  0  0  0  0  0  0
   50.4933    9.3493   20.6718 O   0  0  0  0  0  0  0  0  0  0  0  0
   50.8624    4.6458   20.0382 C   0  0  2  0  0  0  0  0  0  0  0  0
   51.5136    4.6081   18.6987 N   0  0  0  0  0  0  0  0  0  0  0  0
   48.8504    6.2482   19.9321 C   0  0  0  0  0  0  0  0  0  0  0  0
   51.1172    5.7338   22.3987 C   0  0  0  0  0  0  0  0  0  0  0  0
   49.3007    4.8182   20.0446 C   0  0  0  0  0  0  0  0  0  0  0  0
   51.8810    7.1077   18.8360 C   0  0  0  0  0  0  0  0  0  0  0  0
   51.1158    6.8579   23.1319 C   0  0  0  0  0  0  0  0  0  0  0  0
   51.5513    8.1947   22.6041 C   0  0  2  0  0  0  0  0  0  0  0  0
   48.1098    8.9873   20.1659 C   0  0  0  0  0  0  0  0  0  0  0  0
   52.3931    5.7347   18.3882 C   0  0  0  0  0  0  0  0  0  0  0  0
   47.5170    6.6361   19.7996 C   0  0  0  0  0  0  0  0  0  0  0  0
   47.1536    7.9984   19.8926 C   0  0  0  0  0  0  0  0  0  0  0  0
   50.6737    4.2283   17.5735 C   0  0  0  0  0  0  0  0  0  0  0  0
   50.7901    9.1980   23.2755 O   0  0  0  0  0  0  0  0  0  0  0  0
   47.8673   10.3170   20.3498 O   0  0  0  0  0  0  0  0  0  0  0  0
   46.5187   10.7474   20.2274 C   0  0  0  0  0  0  0  0  0  0  0  0
   49.1912    5.3008   19.2468 H   0  0  0  0  0  0  0  0  0  0  0  0
   53.6077    3.9311   21.0060 H   0  0  0  0  0  0  0  0  0  0  0  0
   47.7794    5.8482   20.7289 H   0  0  0  0  0  0  0  0  0  0  0  0
   47.5678    6.2332   22.4024 H   0  0  0  0  0  0  0  0  0  0  0  0
   49.6239    7.7906   19.6148 H   0  0  0  0  0  0  0  0  0  0  0  0
   46.5176   10.7157   22.1296 H   0  0  0  0  0  0  0  0  0  0  0  0
   46.6859    8.3624   22.6976 H   0  0  0  0  0  0  0  0  0  0  0  0
   51.3838    5.9046   24.6755 H   0  0  0  0  0  0  0  0  0  0  0  0
   53.0329    4.7900   23.2068 H   0  0  0  0  0  0  0  0  0  0  0  0
   48.7604    4.0313   17.3635 H   0  0  0  0  0  0  0  0  0  0  0  0
   49.6018    4.2776   15.8294 H   0  0  0  0  0  0  0  0  0  0  0  0
   49.4910    5.6337   16.9568 H   0  0  0  0  0  0  0  0  0  0  0  0
   50.4543    8.8188   17.7663 H   0  0  0  0  0  0  0  0  0  0  0  0
   51.4133    9.3793   19.1911 H   0  0  0  0  0  0  0  0  0  0  0  0
   51.3267   10.3539   17.7192 H   0  0  0  0  0  0  0  0  0  0  0  0
   54.9753    2.5191   17.9771 H   0  0  0  0  0  0  0  0  0  0  0  0
   54.3604    2.2167   19.6060 H   0  0  0  0  0  0  0  0  0  0  0  0
   55.0436    3.8296   19.1608 H   0  0  0  0  0  0  0  0  0  0  0  0
   47.1453   13.8133   20.3488 H   0  0  0  0  0  0  0  0  0  0  0  0
   47.2827   12.9108   21.8614 H   0  0  0  0  0  0  0  0  0  0  0  0
   46.0150   12.4880   20.6446 H   0  0  0  0  0  0  0  0  0  0  0  0
   47.7191    7.4560   20.9922 H   0  0  0  0  0  0  0  0  0  0  0  0
   48.1169    6.0406   18.0461 H   0  0  0  0  0  0  0  0  0  0  0  0
   49.2137    8.2956   22.7773 H   0  0  0  0  0  0  0  0  0  0  0  0
   48.6522    5.7218   22.8260 H   0  0  0  0  0  0  0  0  0  0  0  0
   51.1421    6.9482   22.7919 H   0  0  0  0  0  0  0  0  0  0  0  0
   51.7670    8.4923   22.2166 H   0  0  0  0  0  0  0  0  0  0  0  0
   48.3701    8.2576   18.1571 H   0  0  0  0  0  0  0  0  0  0  0  0
   50.0997    8.5257   18.2922 H   0  0  0  0  0  0  0  0  0  0  0  0
   48.3480    3.6631   21.5998 H   0  0  0  0  0  0  0  0  0  0  0  0
   47.2765    4.4369   19.3422 H   0  0  0  0  0  0  0  0  0  0  0  0
   49.1117   10.4104   19.2735 H   0  0  0  0  0  0  0  0  0  0  0  0
   47.8303    9.5002   20.0546 H   0  0  0  0  0  0  0  0  0  0  0  0
   53.7026    6.7548   21.3945 H   0  0  0  0  0  0  0  0  0  0  0  0
   54.4013    5.3595   19.4842 H   0  0  0  0  0  0  0  0  0  0  0  0
   53.7144    4.2384   17.6365 H   0  0  0  0  0  0  0  0  0  0  0  0
   49.6899    3.5299   18.5680 H   0  0  0  0  0  0  0  0  0  0  0  0
   49.5559   11.5164   21.3902 H   0  0  0  0  0  0  0  0  0  0  0  0
   50.0702   10.5778   22.7831 H   0  0  0  0  0  0  0  0  0  0  0  0
   48.3646   10.5440   22.2812 H   0  0  0  0  0  0  0  0  0  0  0  0
   52.6248    5.5374   20.9810 H   0  0  0  0  0  0  0  0  0  0  0  0
   52.4848    8.8208   20.7661 H   0  0  0  0  0  0  0  0  0  0  0  0
   51.0610    3.6600   20.4804 H   0  0  0  0  0  0  0  0  0  0  0  0
   50.8467    4.7883   22.8620 H   0  0  0  0  0  0  0  0  0  0  0  0
   48.9305    4.4405   21.0080 H   0  0  0  0  0  0  0  0  0  0  0  0
   48.8109    4.2028   19.2843 H   0  0  0  0  0  0  0  0  0  0  0  0
   52.7370    7.7933   18.8095 H   0  0  0  0  0  0  0  0  0  0  0  0
   51.1682    7.4818   18.0897 H   0  0  0  0  0  0  0  0  0  0  0  0
   50.8378    6.8145   24.1822 H   0  0  0  0  0  0  0  0  0  0  0  0
   52.5882    8.3287   22.9382 H   0  0  0  0  0  0  0  0  0  0  0  0
   52.6411    5.7714   17.3197 H   0  0  0  0  0  0  0  0  0  0  0  0
   53.3581    5.5476   18.8785 H   0  0  0  0  0  0  0  0  0  0  0  0
   46.7408    5.8879   19.6544 H   0  0  0  0  0  0  0  0  0  0  0  0
   46.1016    8.2443   19.7866 H   0  0  0  0  0  0  0  0  0  0  0  0
   49.9396    5.0014   17.3230 H   0  0  0  0  0  0  0  0  0  0  0  0
   50.1539    3.2853   17.7725 H   0  0  0  0  0  0  0  0  0  0  0  0
   51.2828    4.0460   16.6806 H   0  0  0  0  0  0  0  0  0  0  0  0
   50.2324    9.6221   22.5936 H   0  0  0  0  0  0  0  0  0  0  0  0
   46.4943   11.8276   20.4021 H   0  0  0  0  0  0  0  0  0  0  0  0
   46.1359   10.5641   19.2180 H   0  0  0  0  0  0  0  0  0  0  0  0
   45.8832   10.2744   20.9834 H   0  0  0  0  0  0  0  0  0  0  0  0
  2  1  1  0
  3  1  2  0
  4  1  1  0
  5  3  1  0
  6  7  1  0
  7  4  2  0
  8  2  2  0
  9 12  2  0
 10  2  1  0
 11 14  2  0
 12 13  1  0
 13 10  1  0
 14 15  1  0
 15 13  2  0
 16 21  2  0
 17  5  1  0
 18  6  1  0
 19  9  1  0
 20 11  1  0
 21  4  1  0
 22 17  1  0
 23 19  1  0
 24 18  1  0
 25 20  1  0
 16  8  1  0
  6  5  2  0
 11  9  1  0
 27 26  1  0
 28 26  1  0
 29 27  2  0
 30 26  1  0
 30 31  1  0
 32 28  1  0
 33 27  1  0
 28 34  1  0
 32 35  1  0
 36 41  1  0
 26 37  1  6
 38 39  1  0
 39 30  1  0
 40 29  1  0
 41 37  1  0
 42 33  2  0
 43 42  1  0
 44 40  1  0
 39 45  1  0
 46 36  1  0
 29 31  1  0
 32 36  1  0
 38 34  2  0
 35 33  1  0
 43 40  2  0
 48 47  1  0
 49 47  1  0
 50 48  2  0
 51 47  1  0
 52 51  1  0
 53 49  1  0
 54 62  1  0
 55 48  1  0
 49 56  1  0
 53 57  1  0
 47 58  1  6
 59 60  1  0
 60 51  1  0
 61 50  1  0
 62 58  1  0
 63 55  2  0
 64 63  1  0
 65 54  1  0
 60 66  1  0
 67 61  1  0
 68 67  1  0
 52 50  1  0
 53 54  1  0
 59 56  2  0
 57 55  1  0
 64 61  2  0
  3 69  1  0
  7 70  1  0
 10 71  1  0
 10 72  1  0
 12 73  1  0
 14 74  1  0
 15 75  1  0
 16 76  1  0
 21 77  1  0
 22 78  1  0
 22 79  1  0
 22 80  1  0
 23 81  1  0
 23 82  1  0
 23 83  1  0
 24 84  1  0
 24 85  1  0
 24 86  1  0
 25 87  1  0
 25 88  1  0
 25 89  1  0
 28 90  1  1
 30 91  1  6
 32 92  1  1
 34 93  1  0
 35 94  1  0
 35 95  1  0
 37 96  1  0
 37 97  1  0
 38 98  1  0
 39 99  1  1
 41100  1  0
 41101  1  0
 42102  1  0
 43103  1  0
 44104  1  0
 45105  1  0
 46106  1  0
 46107  1  0
 46108  1  0
 49109  1  6
 51110  1  6
 53111  1  1
 56112  1  0
 57113  1  0
 57114  1  0
 58115  1  0
 58116  1  0
 59117  1  0
 60118  1  6
 62119  1  0
 62120  1  0
 63121  1  0
 64122  1  0
 65123  1  0
 65124  1  0
 65125  1  0
 66126  1  0
 68127  1  0
 68128  1  0
 68129  1  0
M  END
> <Uni-Dock RESULT> 
ENERGY=   -5.635  LOWER_BOUND=    1.391  UPPER_BOUND=    1.974
INTER + INTRA:          -5.635
INTER:                  -5.635
INTRA:                   0.000
UNBOUND:                 0.000

$$$$

     RDKit          3D

129139  0  0  0  0  0  0  0  0999 V2000
   50.4368    4.8935   19.6869 C   0  0  0  0  0  0  0  0  0  0  0  0
   51.0183    4.6290   18.4183 C   0  0  0  0  0  0  0  0  0  0  0  0
   51.0830    5.5467   20.7679 C   0  0  0  0  0  0  0  0  0  0  0  0
   49.1040    4.4711   19.8798 C   0  0  0  0  0  0  0  0  0  0  0  0
   50.4328    5.7878   21.9845 C   0  0  0  0  0  0  0  0  0  0  0  0
   49.1061    5.3625   22.1554 C   0  0  0  0  0  0  0  0  0  0  0  0
   48.4558    4.7078   21.1055 C   0  0  0  0  0  0  0  0  0  0  0  0
   50.3539    3.9852   17.4183 N   0  0  0  0  0  0  0  0  0  0  0  0
   52.1327    8.7750   17.1371 C   0  0  0  0  0  0  0  0  0  0  0  0
   52.4275    5.0558   18.0546 C   0  0  0  0  0  0  0  0  0  0  0  0
   52.7963    8.8061   15.8967 C   0  0  0  0  0  0  0  0  0  0  0  0
   52.0155    7.5637   17.8325 C   0  0  0  0  0  0  0  0  0  0  0  0
   52.5235    6.3679   17.3000 C   0  0  0  0  0  0  0  0  0  0  0  0
   53.3060    7.6189   15.3641 C   0  0  0  0  0  0  0  0  0  0  0  0
   53.1691    6.4131   16.0585 C   0  0  0  0  0  0  0  0  0  0  0  0
   49.0874    3.6000   17.6507 C   0  0  0  0  0  0  0  0  0  0  0  0
   51.0047    6.4261   23.0572 O   0  0  0  0  0  0  0  0  0  0  0  0
   48.5375    5.6341   23.3749 O   0  0  0  0  0  0  0  0  0  0  0  0
   51.6569    9.9764   17.6048 O   0  0  0  0  0  0  0  0  0  0  0  0
   52.8848   10.0334   15.2883 O   0  0  0  0  0  0  0  0  0  0  0  0
   48.4295    3.8180   18.8444 C   0  0  0  0  0  0  0  0  0  0  0  0
   52.3296    6.9177   22.9132 C   0  0  0  0  0  0  0  0  0  0  0  0
   50.6973    9.9286   18.6520 C   0  0  0  0  0  0  0  0  0  0  0  0
   47.1967    5.2188   23.5900 C   0  0  0  0  0  0  0  0  0  0  0  0
   53.5820   10.1058   14.0535 C   0  0  0  0  0  0  0  0  0  0  0  0
   51.8370    6.8687   19.2946 C   0  0  2  0  0  0  0  0  0  0  0  0
   50.4182    6.7461   19.7663 C   0  0  0  0  0  0  0  0  0  0  0  0
   52.0332    5.9460   18.0859 C   0  0  2  0  0  0  0  0  0  0  0  0
   50.3551    6.8333   21.1407 C   0  0  0  0  0  0  0  0  0  0  0  0
   52.5055    6.4763   20.6294 C   0  0  1  0  0  0  0  0  0  0  0  0
   51.6002    6.8808   21.7177 O   0  0  0  0  0  0  0  0  0  0  0  0
   50.9591    6.3878   17.0296 C   0  0  1  0  0  0  0  0  0  0  0  0
   49.3042    6.4819   18.9869 C   0  0  0  0  0  0  0  0  0  0  0  0
   52.0048    4.4840   18.4575 C   0  0  0  0  0  0  0  0  0  0  0  0
   49.5016    6.1338   17.5342 C   0  0  0  0  0  0  0  0  0  0  0  0
   51.0505    7.8348   16.6910 N   0  0  0  0  0  0  0  0  0  0  0  0
   52.1146    8.3395   18.8940 C   0  0  0  0  0  0  0  0  0  0  0  0
   52.3762    4.0570   19.6740 C   0  0  0  0  0  0  0  0  0  0  0  0
   52.8661    4.9645   20.7653 C   0  0  2  0  0  0  0  0  0  0  0  0
   49.1431    6.7836   21.7932 C   0  0  0  0  0  0  0  0  0  0  0  0
   52.1274    8.5516   17.3707 C   0  0  0  0  0  0  0  0  0  0  0  0
   48.0672    6.4263   19.6348 C   0  0  0  0  0  0  0  0  0  0  0  0
   47.9842    6.5987   21.0323 C   0  0  0  0  0  0  0  0  0  0  0  0
   49.0990    6.8741   23.1502 O   0  0  0  0  0  0  0  0  0  0  0  0
   52.4368    4.4128   22.0098 O   0  0  0  0  0  0  0  0  0  0  0  0
   51.0868    8.0583   15.2484 C   0  0  0  0  0  0  0  0  0  0  0  0
   49.7981    6.8395   19.1589 C   0  0  2  0  0  0  0  0  0  0  0  0
   51.2630    6.8338   18.8346 C   0  0  0  0  0  0  0  0  0  0  0  0
   49.3909    5.4316   19.6245 C   0  0  2  0  0  0  0  0  0  0  0  0
   51.5291    7.6448   17.7504 C   0  0  0  0  0  0  0  0  0  0  0  0
   49.3086    7.3159   17.7750 C   0  0  1  0  0  0  0  0  0  0  0  0
   50.3773    8.1347   17.1800 O   0  0  0  0  0  0  0  0  0  0  0  0
   50.3105    5.1203   20.8636 C   0  0  2  0  0  0  0  0  0  0  0  0
   50.0215    6.0672   21.9771 N   0  0  0  0  0  0  0  0  0  0  0  0
   52.2388    6.0741   19.4497 C   0  0  0  0  0  0  0  0  0  0  0  0
   49.4358    4.4196   18.5048 C   0  0  0  0  0  0  0  0  0  0  0  0
   51.8142    5.0088   20.4220 C   0  0  0  0  0  0  0  0  0  0  0  0
   49.5626    7.8844   20.2774 C   0  0  0  0  0  0  0  0  0  0  0  0
   49.2203    4.7724   17.2279 C   0  0  0  0  0  0  0  0  0  0  0  0
   48.8962    6.1738   16.7964 C   0  0  2  0  0  0  0  0  0  0  0  0
   52.8202    7.8390   17.2926 C   0  0  0  0  0  0  0  0  0  0  0  0
   49.2187    7.2374   21.6232 C   0  0  0  0  0  0  0  0  0  0  0  0
   53.5510    6.2476   19.0093 C   0  0  0  0  0  0  0  0  0  0  0  0
   53.8413    7.1412   17.9540 C   0  0  0  0  0  0  0  0  0  0  0  0
   51.1294    6.3959   22.8604 C   0  0  0  0  0  0  0  0  0  0  0  0
   49.4343    6.3630   15.4882 O   0  0  0  0  0  0  0  0  0  0  0  0
   52.9714    8.6672   16.2194 O   0  0  0  0  0  0  0  0  0  0  0  0
   54.2946    8.8632   15.7401 C   0  0  0  0  0  0  0  0  0  0  0  0
   52.1091    5.8721   20.6437 H   0  0  0  0  0  0  0  0  0  0  0  0
   47.4303    4.3705   21.2191 H   0  0  0  0  0  0  0  0  0  0  0  0
   53.0833    5.0950   18.9301 H   0  0  0  0  0  0  0  0  0  0  0  0
   52.8531    4.2530   17.4363 H   0  0  0  0  0  0  0  0  0  0  0  0
   51.5288    7.5410   18.7998 H   0  0  0  0  0  0  0  0  0  0  0  0
   53.8143    7.5945   14.4062 H   0  0  0  0  0  0  0  0  0  0  0  0
   53.5723    5.5045   15.6156 H   0  0  0  0  0  0  0  0  0  0  0  0
   48.5960    3.0960   16.8234 H   0  0  0  0  0  0  0  0  0  0  0  0
   47.4045    3.4798   18.9569 H   0  0  0  0  0  0  0  0  0  0  0  0
   53.0381    6.0994   22.7483 H   0  0  0  0  0  0  0  0  0  0  0  0
   52.6067    7.4127   23.8489 H   0  0  0  0  0  0  0  0  0  0  0  0
   52.3906    7.6628   22.1130 H   0  0  0  0  0  0  0  0  0  0  0  0
   51.1662    9.6376   19.5974 H   0  0  0  0  0  0  0  0  0  0  0  0
   49.8622    9.2647   18.4038 H   0  0  0  0  0  0  0  0  0  0  0  0
   50.2923   10.9371   18.7803 H   0  0  0  0  0  0  0  0  0  0  0  0
   46.9148    5.5129   24.6055 H   0  0  0  0  0  0  0  0  0  0  0  0
   47.1047    4.1301   23.5216 H   0  0  0  0  0  0  0  0  0  0  0  0
   46.5125    5.7192   22.8971 H   0  0  0  0  0  0  0  0  0  0  0  0
   53.5735   11.1495   13.7252 H   0  0  0  0  0  0  0  0  0  0  0  0
   53.0820    9.5114   13.2818 H   0  0  0  0  0  0  0  0  0  0  0  0
   54.6279    9.8039   14.1711 H   0  0  0  0  0  0  0  0  0  0  0  0
   53.0307    6.1048   17.6512 H   0  0  0  0  0  0  0  0  0  0  0  0
   53.4319    7.0444   20.7812 H   0  0  0  0  0  0  0  0  0  0  0  0
   51.1098    5.7833   16.1241 H   0  0  0  0  0  0  0  0  0  0  0  0
   51.7113    3.7600   17.7010 H   0  0  0  0  0  0  0  0  0  0  0  0
   49.2785    5.0657   17.4149 H   0  0  0  0  0  0  0  0  0  0  0  0
   48.7776    6.6804   16.9171 H   0  0  0  0  0  0  0  0  0  0  0  0
   53.0979    8.6523   19.2666 H   0  0  0  0  0  0  0  0  0  0  0  0
   51.3838    9.0229   19.3465 H   0  0  0  0  0  0  0  0  0  0  0  0
   52.3730    2.9916   19.8933 H   0  0  0  0  0  0  0  0  0  0  0  0
   53.9601    4.8814   20.7613 H   0  0  0  0  0  0  0  0  0  0  0  0
   52.0385    9.6282   17.1794 H   0  0  0  0  0  0  0  0  0  0  0  0
   53.1045    8.2497   16.9701 H   0  0  0  0  0  0  0  0  0  0  0  0
   47.1623    6.2226   19.0671 H   0  0  0  0  0  0  0  0  0  0  0  0
   47.0095    6.5444   21.5077 H   0  0  0  0  0  0  0  0  0  0  0  0
   48.1729    6.8198   23.4347 H   0  0  0  0  0  0  0  0  0  0  0  0
   51.8477    5.0793   22.4183 H   0  0  0  0  0  0  0  0  0  0  0  0
   51.0419    9.1290   15.0211 H   0  0  0  0  0  0  0  0  0  0  0  0
   50.2173    7.5993   14.7647 H   0  0  0  0  0  0  0  0  0  0  0  0
   51.9946    7.6460   14.7938 H   0  0  0  0  0  0  0  0  0  0  0  0
   48.3428    5.4290   19.9566 H   0  0  0  0  0  0  0  0  0  0  0  0
   48.4423    7.9812   17.8775 H   0  0  0  0  0  0  0  0  0  0  0  0
   50.0335    4.1304   21.2512 H   0  0  0  0  0  0  0  0  0  0  0  0
   49.6059    3.3752   18.7536 H   0  0  0  0  0  0  0  0  0  0  0  0
   51.9383    4.0426   19.9130 H   0  0  0  0  0  0  0  0  0  0  0  0
   52.4976    4.9768   21.2755 H   0  0  0  0  0  0  0  0  0  0  0  0
   48.7227    8.5386   20.0125 H   0  0  0  0  0  0  0  0  0  0  0  0
   50.4307    8.5428   20.4113 H   0  0  0  0  0  0  0  0  0  0  0  0
   49.2239    4.0109   16.4517 H   0  0  0  0  0  0  0  0  0  0  0  0
   47.8051    6.2105   16.6819 H   0  0  0  0  0  0  0  0  0  0  0  0
   49.2489    8.0013   22.4107 H   0  0  0  0  0  0  0  0  0  0  0  0
   48.1666    6.9232   21.5982 H   0  0  0  0  0  0  0  0  0  0  0  0
   54.3589    5.6714   19.4550 H   0  0  0  0  0  0  0  0  0  0  0  0
   54.8786    7.2345   17.6479 H   0  0  0  0  0  0  0  0  0  0  0  0
   51.8814    7.0221   22.3689 H   0  0  0  0  0  0  0  0  0  0  0  0
   51.6075    5.4887   23.2445 H   0  0  0  0  0  0  0  0  0  0  0  0
   50.7718    6.9369   23.7441 H   0  0  0  0  0  0  0  0  0  0  0  0
   50.1348    7.0397   15.5745 H   0  0  0  0  0  0  0  0  0  0  0  0
   54.2442    9.5455   14.8857 H   0  0  0  0  0  0  0  0  0  0  0  0
   54.9257    9.3305   16.5032 H   0  0  0  0  0  0  0  0  0  0  0  0
   54.7304    7.9223   15.3882 H   0  0  0  0  0  0  0  0  0  0  0  0
  2  1  1  0
  3  1  2  0
  4  1  1  0
  5  3  1  0
  6  7  1  0
  7  4  2  0
  8  2  2  0
  9 12  2  0
 10  2  1  0
 11 14  2  0
 12 13  1  0
 13 10  1  0
 14 15  1  0
 15 13  2  0
 16 21  2  0
 17  5  1  0
 18  6  1  0
 19  9  1  0
 20 11  1  0
 21  4  1  0
 22 17  1  0
 23 19  1  0
 24 18  1  0
 25 20  1  0
 16  8  1  0
  6  5  2  0
 11  9  1  0
 27 26  1  0
 28 26  1  0
 29 27  2  0
 30 26  1  0
 30 31  1  0
 32 28  1  0
 33 27  1  0
 28 34  1  0
 32 35  1  0
 36 41  1  0
 26 37  1  6
 38 39  1  0
 39 30  1  0
 40 29  1  0
 41 37  1  0
 42 33  2  0
 43 42  1  0
 44 40  1  0
 39 45  1  0
 46 36  1  0
 29 31  1  0
 32 36  1  0
 38 34  2  0
 35 33  1  0
 43 40  2  0
 48 47  1  0
 49 47  1  0
 50 48  2  0
 51 47  1  0
 52 51  1  0
 53 49  1  0
 54 62  1  0
 55 48  1  0
 49 56  1  0
 53 57  1  0
 47 58  1  6
 59 60  1  0
 60 51  1  0
 61 50  1  0
 62 58  1  0
 63 55  2  0
 64 63  1  0
 65 54  1  0
 60 66  1  0
 67 61  1  0
 68 67  1  0
 52 50  1  0
 53 54  1  0
 59 56  2  0
 57 55  1  0
 64 61  2  0
  3 69  1  0
  7 70  1  0
 10 71  1  0
 10 72  1  0
 12 73  1  0
 14 74  1  0
 15 75  1  0
 16 76  1  0
 21 77  1  0
 22 78  1  0
 22 79  1  0
 22 80  1  0
 23 81  1  0
 23 82  1  0
 23 83  1  0
 24 84  1  0
 24 85  1  0
 24 86  1  0
 25 87  1  0
 25 88  1  0
 25 89  1  0
 28 90  1  1
 30 91  1  6
 32 92  1  1
 34 93  1  0
 35 94  1  0
 35 95  1  0
 37 96  1  0
 37 97  1  0
 38 98  1  0
 39 99  1  1
 41100  1  0
 41101  1  0
 42102  1  0
 43103  1  0
 44104  1  0
 45105  1  0
 46106  1  0
 46107  1  0
 46108  1  0
 49109  1  6
 51110  1  6
 53111  1  1
 56112  1  0
 57113  1  0
 57114  1  0
 58115  1  0
 58116  1  0
 59117  1  0
 60118  1  6
 62119  1  0
 62120  1  0
 63121  1  0
 64122  1  0
 65123  1  0
 65124  1  0
 65125  1  0
 66126  1  0
 68127  1  0
 68128  1  0
 68129  1  0
M  END
> <Uni-Dock RESULT> 
ENERGY=   -5.198  LOWER_BOUND=    2.017  UPPER_BOUND=    4.939
INTER + INTRA:          -5.198
INTER:                  -5.198
INTRA:                   0.000
UNBOUND:                 0.000

$$$$

     RDKit          3D

129139  0  0  0  0  0  0  0  0999 V2000
   48.0434    7.2775   20.8489 C   0  0  0  0  0  0  0  0  0  0  0  0
   48.2351    7.8636   22.1284 C   0  0  0  0  0  0  0  0  0  0  0  0
   48.2343    7.9345   19.6061 C   0  0  0  0  0  0  0  0  0  0  0  0
   47.6315    5.9278   20.8193 C   0  0  0  0  0  0  0  0  0  0  0  0
   48.0423    7.2795   18.3834 C   0  0  0  0  0  0  0  0  0  0  0  0
   47.6355    5.9361   18.3753 C   0  0  0  0  0  0  0  0  0  0  0  0
   47.4321    5.2745   19.5897 C   0  0  0  0  0  0  0  0  0  0  0  0
   48.0242    7.1876   23.2923 N   0  0  0  0  0  0  0  0  0  0  0  0
   52.5170    9.1449   21.8196 C   0  0  0  0  0  0  0  0  0  0  0  0
   48.7101    9.2917   22.3158 C   0  0  0  0  0  0  0  0  0  0  0  0
   52.9706    9.8237   22.9657 C   0  0  0  0  0  0  0  0  0  0  0  0
   51.1415    8.9751   21.6111 C   0  0  0  0  0  0  0  0  0  0  0  0
   50.2018    9.4448   22.5428 C   0  0  0  0  0  0  0  0  0  0  0  0
   52.0388   10.2955   23.8943 C   0  0  0  0  0  0  0  0  0  0  0  0
   50.6695   10.1061   23.6847 C   0  0  0  0  0  0  0  0  0  0  0  0
   47.6301    5.9052   23.2124 C   0  0  0  0  0  0  0  0  0  0  0  0
   48.2253    7.8620   17.1536 O   0  0  0  0  0  0  0  0  0  0  0  0
   47.4678    5.3637   17.1390 O   0  0  0  0  0  0  0  0  0  0  0  0
   53.4842    8.7083   20.9465 O   0  0  0  0  0  0  0  0  0  0  0  0
   54.3306    9.9645   23.0872 O   0  0  0  0  0  0  0  0  0  0  0  0
   47.4253    5.2419   22.0194 C   0  0  0  0  0  0  0  0  0  0  0  0
   48.6841    9.2057   17.1125 C   0  0  0  0  0  0  0  0  0  0  0  0
   53.0967    7.7354   19.9856 C   0  0  0  0  0  0  0  0  0  0  0  0
   47.0548    4.0060   17.0861 C   0  0  0  0  0  0  0  0  0  0  0  0
   54.8192   10.6783   24.2131 C   0  0  0  0  0  0  0  0  0  0  0  0
   49.9707    8.7540   20.5007 C   0  0  2  0  0  0  0  0  0  0  0  0
   49.7401    7.3262   20.1022 C   0  0  0  0  0  0  0  0  0  0  0  0
   49.5427    8.9301   21.9625 C   0  0  2  0  0  0  0  0  0  0  0  0
   49.3249    7.2503   18.7898 C   0  0  0  0  0  0  0  0  0  0  0  0
   49.0951    9.3919   19.4012 C   0  0  1  0  0  0  0  0  0  0  0  0
   49.1117    8.4895   18.2381 O   0  0  0  0  0  0  0  0  0  0  0  0
   50.3789    7.8855   22.7836 C   0  0  1  0  0  0  0  0  0  0  0  0
   49.8200    6.2124   20.9216 C   0  0  0  0  0  0  0  0  0  0  0  0
   48.0477    8.8436   22.1470 C   0  0  0  0  0  0  0  0  0  0  0  0
   50.0155    6.4138   22.4020 C   0  0  0  0  0  0  0  0  0  0  0  0
   51.8454    8.0341   22.5739 N   0  0  0  0  0  0  0  0  0  0  0  0
   51.4747    9.0902   20.3407 C   0  0  0  0  0  0  0  0  0  0  0  0
   47.1944    9.1847   21.1695 C   0  0  0  0  0  0  0  0  0  0  0  0
   47.6243    9.6949   19.8243 C   0  0  2  0  0  0  0  0  0  0  0  0
   49.0887    6.0297   18.1969 C   0  0  0  0  0  0  0  0  0  0  0  0
   52.2245    9.1287   21.6830 C   0  0  0  0  0  0  0  0  0  0  0  0
   49.5808    4.9667   20.3351 C   0  0  0  0  0  0  0  0  0  0  0  0
   49.2374    4.8738   18.9701 C   0  0  0  0  0  0  0  0  0  0  0  0
   48.6822    5.9731   16.8995 O   0  0  0  0  0  0  0  0  0  0  0  0
   46.6757    9.2310   18.8641 O   0  0  0  0  0  0  0  0  0  0  0  0
   52.5756    8.0955   23.8370 C   0  0  0  0  0  0  0  0  0  0  0  0
   50.0714    6.7171   20.6327 C   0  0  2  0  0  0  0  0  0  0  0  0
   50.1273    8.1845   20.9406 C   0  0  0  0  0  0  0  0  0  0  0  0
   48.6074    6.2529   20.7091 C   0  0  2  0  0  0  0  0  0  0  0  0
   51.2656    8.4930   21.6570 C   0  0  0  0  0  0  0  0  0  0  0  0
   51.0361    6.2617   21.7480 C   0  0  1  0  0  0  0  0  0  0  0  0
   51.9731    7.3667   22.0077 O   0  0  0  0  0  0  0  0  0  0  0  0
   47.8324    7.1458   19.6699 C   0  0  2  0  0  0  0  0  0  0  0  0
   48.3211    6.8789   18.2879 N   0  0  0  0  0  0  0  0  0  0  0  0
   49.1591    9.1244   20.6457 C   0  0  0  0  0  0  0  0  0  0  0  0
   48.0698    6.2735   22.1199 C   0  0  0  0  0  0  0  0  0  0  0  0
   47.8308    8.6495   20.1256 C   0  0  0  0  0  0  0  0  0  0  0  0
   50.6475    6.5072   19.2105 C   0  0  0  0  0  0  0  0  0  0  0  0
   48.8700    6.0861   23.1811 C   0  0  0  0  0  0  0  0  0  0  0  0
   50.3438    5.8189   23.0735 C   0  0  2  0  0  0  0  0  0  0  0  0
   51.5626    9.7956   22.0163 C   0  0  0  0  0  0  0  0  0  0  0  0
   49.5700    6.1240   18.1907 C   0  0  0  0  0  0  0  0  0  0  0  0
   49.4298   10.4471   20.9964 C   0  0  0  0  0  0  0  0  0  0  0  0
   50.6335   10.7825   21.6559 C   0  0  0  0  0  0  0  0  0  0  0  0
   48.2637    7.9877   17.3482 C   0  0  0  0  0  0  0  0  0  0  0  0
   50.9740    6.3790   24.2250 O   0  0  0  0  0  0  0  0  0  0  0  0
   52.7174    9.9898   22.7159 O   0  0  0  0  0  0  0  0  0  0  0  0
   53.0227   11.3248   23.0946 C   0  0  0  0  0  0  0  0  0  0  0  0
   48.5427    8.9733   19.6062 H   0  0  0  0  0  0  0  0  0  0  0  0
   47.1165    4.2360   19.6037 H   0  0  0  0  0  0  0  0  0  0  0  0
   48.4035    9.9383   21.4874 H   0  0  0  0  0  0  0  0  0  0  0  0
   48.1706    9.6947   23.1845 H   0  0  0  0  0  0  0  0  0  0  0  0
   50.7880    8.4766   20.7169 H   0  0  0  0  0  0  0  0  0  0  0  0
   52.3441   10.8137   24.7969 H   0  0  0  0  0  0  0  0  0  0  0  0
   49.9687   10.4807   24.4283 H   0  0  0  0  0  0  0  0  0  0  0  0
   47.4801    5.4052   24.1650 H   0  0  0  0  0  0  0  0  0  0  0  0
   47.1091    4.2038   22.0348 H   0  0  0  0  0  0  0  0  0  0  0  0
   47.9548    9.8854   17.5650 H   0  0  0  0  0  0  0  0  0  0  0  0
   48.7946    9.4898   16.0616 H   0  0  0  0  0  0  0  0  0  0  0  0
   49.6658    9.3034   17.5877 H   0  0  0  0  0  0  0  0  0  0  0  0
   52.4646    8.1822   19.2116 H   0  0  0  0  0  0  0  0  0  0  0  0
   52.6009    6.8794   20.4559 H   0  0  0  0  0  0  0  0  0  0  0  0
   54.0047    7.3664   19.4989 H   0  0  0  0  0  0  0  0  0  0  0  0
   46.9710    3.7233   16.0324 H   0  0  0  0  0  0  0  0  0  0  0  0
   46.0695    3.8748   17.5448 H   0  0  0  0  0  0  0  0  0  0  0  0
   47.7986    3.3489   17.5483 H   0  0  0  0  0  0  0  0  0  0  0  0
   55.9104   10.7121   24.1401 H   0  0  0  0  0  0  0  0  0  0  0  0
   54.5652   10.1658   25.1468 H   0  0  0  0  0  0  0  0  0  0  0  0
   54.4551   11.7109   24.2157 H   0  0  0  0  0  0  0  0  0  0  0  0
   49.8098    9.9378   22.3124 H   0  0  0  0  0  0  0  0  0  0  0  0
   49.5332   10.3368   19.0557 H   0  0  0  0  0  0  0  0  0  0  0  0
   50.1388    8.0244   23.8471 H   0  0  0  0  0  0  0  0  0  0  0  0
   47.6596    8.5324   23.1140 H   0  0  0  0  0  0  0  0  0  0  0  0
   49.0730    6.1529   22.9005 H   0  0  0  0  0  0  0  0  0  0  0  0
   50.7763    5.7177   22.7768 H   0  0  0  0  0  0  0  0  0  0  0  0
   51.5928   10.0800   19.8824 H   0  0  0  0  0  0  0  0  0  0  0  0
   51.9750    8.3799   19.6691 H   0  0  0  0  0  0  0  0  0  0  0  0
   46.1231    9.1397   21.3520 H   0  0  0  0  0  0  0  0  0  0  0  0
   47.5062   10.7851   19.8610 H   0  0  0  0  0  0  0  0  0  0  0  0
   53.2997    9.0817   21.4702 H   0  0  0  0  0  0  0  0  0  0  0  0
   52.0511   10.0986   22.1683 H   0  0  0  0  0  0  0  0  0  0  0  0
   49.6321    4.0616   20.9357 H   0  0  0  0  0  0  0  0  0  0  0  0
   49.0518    3.8922   18.5444 H   0  0  0  0  0  0  0  0  0  0  0  0
   48.5641    5.0424   16.6519 H   0  0  0  0  0  0  0  0  0  0  0  0
   47.1707    8.6622   18.2400 H   0  0  0  0  0  0  0  0  0  0  0  0
   53.6567    8.0927   23.6599 H   0  0  0  0  0  0  0  0  0  0  0  0
   52.3573    7.2154   24.4522 H   0  0  0  0  0  0  0  0  0  0  0  0
   52.3217    8.9928   24.4126 H   0  0  0  0  0  0  0  0  0  0  0  0
   48.5249    5.2015   20.3980 H   0  0  0  0  0  0  0  0  0  0  0  0
   51.6518    5.4194   21.4088 H   0  0  0  0  0  0  0  0  0  0  0  0
   46.7808    6.8280   19.6675 H   0  0  0  0  0  0  0  0  0  0  0  0
   47.0006    6.4021   22.2677 H   0  0  0  0  0  0  0  0  0  0  0  0
   47.1112    8.7438   20.9510 H   0  0  0  0  0  0  0  0  0  0  0  0
   47.4649    9.3211   19.3435 H   0  0  0  0  0  0  0  0  0  0  0  0
   51.3851    5.6951   19.2178 H   0  0  0  0  0  0  0  0  0  0  0  0
   51.1784    7.3974   18.8489 H   0  0  0  0  0  0  0  0  0  0  0  0
   48.4426    6.0708   24.1808 H   0  0  0  0  0  0  0  0  0  0  0  0
   50.4616    4.7314   23.1641 H   0  0  0  0  0  0  0  0  0  0  0  0
   49.9942    6.1731   17.1797 H   0  0  0  0  0  0  0  0  0  0  0  0
   49.3270    5.0613   18.3254 H   0  0  0  0  0  0  0  0  0  0  0  0
   48.7005   11.2280   20.7923 H   0  0  0  0  0  0  0  0  0  0  0  0
   50.7915   11.8261   21.9098 H   0  0  0  0  0  0  0  0  0  0  0  0
   48.9962    8.7681   17.5807 H   0  0  0  0  0  0  0  0  0  0  0  0
   47.2613    8.4276   17.3209 H   0  0  0  0  0  0  0  0  0  0  0  0
   48.4605    7.6400   16.3275 H   0  0  0  0  0  0  0  0  0  0  0  0
   51.5456    7.1028   23.9007 H   0  0  0  0  0  0  0  0  0  0  0  0
   53.9700   11.3095   23.6428 H   0  0  0  0  0  0  0  0  0  0  0  0
   53.1565   11.9637   22.2154 H   0  0  0  0  0  0  0  0  0  0  0  0
   52.2576   11.7298   23.7651 H   0  0  0  0  0  0  0  0  0  0  0  0
  2  1  1  0
  3  1  2  0
  4  1  1  0
  5  3  1  0
  6  7  1  0
  7  4  2  0
  8  2  2  0
  9 12  2  0
 10  2  1  0
 11 14  2  0
 12 13  1  0
 13 10  1  0
 14 15  1  0
 15 13  2  0
 16 21  2  0
 17  5  1  0
 18  6  1  0
 19  9  1  0
 20 11  1  0
 21  4  1  0
 22 17  1  0
 23 19  1  0
 24 18  1  0
 25 20  1  0
 16  8  1  0
  6  5  2  0
 11  9  1  0
 27 26  1  0
 28 26  1  0
 29 27  2  0
 30 26  1  0
 30 31  1  0
 32 28  1  0
 33 27  1  0
 28 34  1  0
 32 35  1  0
 36 41  1  0
 26 37  1  6
 38 39  1  0
 39 30  1  0
 40 29  1  0
 41 37  1  0
 42 33  2  0
 43 42  1  0
 44 40  1  0
 39 45  1  0
 46 36  1  0
 29 31  1  0
 32 36  1  0
 38 34  2  0
 35 33  1  0
 43 40  2  0
 48 47  1  0
 49 47  1  0
 50 48  2  0
 51 47  1  0
 52 51  1  0
 53 49  1  0
 54 62  1  0
 55 48  1  0
 49 56  1  0
 53 57  1  0
 47 58  1  6
 59 60  1  0
 60 51  1  0
 61 50  1  0
 62 58  1  0
 63 55  2  0
 64 63  1  0
 65 54  1  0
 60 66  1  0
 67 61  1  0
 68 67  1  0
 52 50  1  0
 53 54  1  0
 59 56  2  0
 57 55  1  0
 64 61  2  0
  3 69  1  0
  7 70  1  0
 10 71  1  0
 10 72  1  0
 12 73  1  0
 14 74  1  0
 15 75  1  0
 16 76  1  0
 21 77  1  0
 22 78  1  0
 22 79  1  0
 22 80  1  0
 23 81  1  0
 23 82  1  0
 23 83  1  0
 24 84  1  0
 24 85  1  0
 24 86  1  0
 25 87  1  0
 25 88  1  0
 25 89  1  0
 28 90  1  1
 30 91  1  6
 32 92  1  1
 34 93  1  0
 35 94  1  0
 35 95  1  0
 37 96  1  0
 37 97  1  0
 38 98  1  0
 39 99  1  1
 41100  1  0
 41101  1  0
 42102  1  0
 43103  1  0
 44104  1  0
 45105  1  0
 46106  1  0
 46107  1  0
 46108  1  0
 49109  1  6
 51110  1  6
 53111  1  1
 56112  1  0
 57113  1  0
 57114  1  0
 58115  1  0
 58116  1  0
 59117  1  0
 60118  1  6
 62119  1  0
 62120  1  0
 63121  1  0
 64122  1  0
 65123  1  0
 65124  1  0
 65125  1  0
 66126  1  0
 68127  1  0
 68128  1  0
 68129  1  0
M  END
> <Uni-Dock RESULT> 
ENERGY=   -5.156  LOWER_BOUND=    1.986  UPPER_BOUND=    4.444
INTER + INTRA:          -5.156
INTER:                  -5.156
INTRA:                   0.000
UNBOUND:                 0.000

$$$$

     RDKit          3D

129139  0  0  0  0  0  0  0  0999 V2000
   49.7249    6.0294   21.6562 C   0  0  0  0  0  0  0  0  0  0  0  0
   48.5565    6.7881   21.9328 C   0  0  0  0  0  0  0  0  0  0  0  0
   50.1750    5.6535   20.3643 C   0  0  0  0  0  0  0  0  0  0  0  0
   50.4992    5.6214   22.7635 C   0  0  0  0  0  0  0  0  0  0  0  0
   51.3517    4.9186   20.1734 C   0  0  0  0  0  0  0  0  0  0  0  0
   52.1093    4.5250   21.2875 C   0  0  0  0  0  0  0  0  0  0  0  0
   51.6767    4.8768   22.5692 C   0  0  0  0  0  0  0  0  0  0  0  0
   48.1641    7.1103   23.1970 N   0  0  0  0  0  0  0  0  0  0  0  0
   49.3976   10.4974   19.5651 C   0  0  0  0  0  0  0  0  0  0  0  0
   47.6477    7.3250   20.8437 C   0  0  0  0  0  0  0  0  0  0  0  0
   48.3468   11.4317   19.6174 C   0  0  0  0  0  0  0  0  0  0  0  0
   49.1697    9.1721   19.9604 C   0  0  0  0  0  0  0  0  0  0  0  0
   47.9149    8.7620   20.4388 C   0  0  0  0  0  0  0  0  0  0  0  0
   47.0953   11.0273   20.0902 C   0  0  0  0  0  0  0  0  0  0  0  0
   46.8834    9.7067   20.4976 C   0  0  0  0  0  0  0  0  0  0  0  0
   48.9330    6.6969   24.2189 C   0  0  0  0  0  0  0  0  0  0  0  0
   51.8401    4.5401   18.9473 O   0  0  0  0  0  0  0  0  0  0  0  0
   53.2484    3.8074   21.0197 O   0  0  0  0  0  0  0  0  0  0  0  0
   50.6013   10.9591   19.0894 O   0  0  0  0  0  0  0  0  0  0  0  0
   48.6460   12.7034   19.1961 O   0  0  0  0  0  0  0  0  0  0  0  0
   50.0911    5.9637   24.0557 C   0  0  0  0  0  0  0  0  0  0  0  0
   51.1327    4.9580   17.7885 C   0  0  0  0  0  0  0  0  0  0  0  0
   51.7485   10.1613   19.3490 C   0  0  0  0  0  0  0  0  0  0  0  0
   54.0430    3.3877   22.1193 C   0  0  0  0  0  0  0  0  0  0  0  0
   47.5974   13.6606   19.2001 C   0  0  0  0  0  0  0  0  0  0  0  0
   49.6430    7.6227   19.7933 C   0  0  2  0  0  0  0  0  0  0  0  0
   50.7759    7.2090   20.6854 C   0  0  0  0  0  0  0  0  0  0  0  0
   48.4114    7.9021   20.6628 C   0  0  2  0  0  0  0  0  0  0  0  0
   51.5489    6.2461   20.0722 C   0  0  0  0  0  0  0  0  0  0  0  0
   49.6402    6.3588   18.9072 C   0  0  1  0  0  0  0  0  0  0  0  0
   51.0146    5.8321   18.8769 O   0  0  0  0  0  0  0  0  0  0  0  0
   48.8550    8.9973   21.6965 C   0  0  1  0  0  0  0  0  0  0  0  0
   51.0036    7.6268   21.9861 C   0  0  0  0  0  0  0  0  0  0  0  0
   47.8270    6.6488   21.2663 C   0  0  0  0  0  0  0  0  0  0  0  0
   49.9598    8.4717   22.6694 C   0  0  0  0  0  0  0  0  0  0  0  0
   49.4048   10.2151   21.0397 N   0  0  0  0  0  0  0  0  0  0  0  0
   50.0482    8.9001   19.0156 C   0  0  0  0  0  0  0  0  0  0  0  0
   47.9488    5.4538   20.6686 C   0  0  0  0  0  0  0  0  0  0  0  0
   48.6474    5.2423   19.3564 C   0  0  2  0  0  0  0  0  0  0  0  0
   52.6704    5.7439   20.6944 C   0  0  0  0  0  0  0  0  0  0  0  0
   49.3969   10.1744   19.5789 C   0  0  0  0  0  0  0  0  0  0  0  0
   52.1366    7.1245   22.6317 C   0  0  0  0  0  0  0  0  0  0  0  0
   52.9805    6.2016   21.9791 C   0  0  0  0  0  0  0  0  0  0  0  0
   53.4235    4.7959   20.0733 O   0  0  0  0  0  0  0  0  0  0  0  0
   49.2603    3.9539   19.3972 O   0  0  0  0  0  0  0  0  0  0  0  0
   48.7837   11.4367   21.5439 C   0  0  0  0  0  0  0  0  0  0  0  0
   50.9461    7.7314   21.3638 C   0  0  2  0  0  0  0  0  0  0  0  0
   49.7858    7.9491   20.4379 C   0  0  0  0  0  0  0  0  0  0  0  0
   50.6952    6.4494   22.1753 C   0  0  2  0  0  0  0  0  0  0  0  0
   49.5034    9.2940   20.3123 C   0  0  0  0  0  0  0  0  0  0  0  0
   50.8481    9.0855   22.0978 C   0  0  1  0  0  0  0  0  0  0  0  0
   50.2672   10.0610   21.1609 O   0  0  0  0  0  0  0  0  0  0  0  0
   50.5178    5.3077   21.1063 C   0  0  2  0  0  0  0  0  0  0  0  0
   51.7783    5.1165   20.3351 N   0  0  0  0  0  0  0  0  0  0  0  0
   49.0184    6.9708   19.8364 C   0  0  0  0  0  0  0  0  0  0  0  0
   49.5626    6.6050   23.1616 C   0  0  0  0  0  0  0  0  0  0  0  0
   49.2158    5.5414   20.2585 C   0  0  0  0  0  0  0  0  0  0  0  0
   52.2255    7.6013   20.5009 C   0  0  0  0  0  0  0  0  0  0  0  0
   49.2647    7.7932   23.7101 C   0  0  0  0  0  0  0  0  0  0  0  0
   50.0263    9.0552   23.4229 C   0  0  2  0  0  0  0  0  0  0  0  0
   48.5027    9.7469   19.4710 C   0  0  0  0  0  0  0  0  0  0  0  0
   52.7792    6.1727   20.4825 C   0  0  0  0  0  0  0  0  0  0  0  0
   48.0009    7.3968   18.9825 C   0  0  0  0  0  0  0  0  0  0  0  0
   47.7609    8.7749   18.7839 C   0  0  0  0  0  0  0  0  0  0  0  0
   51.6412    4.6645   18.9593 C   0  0  0  0  0  0  0  0  0  0  0  0
   49.1123   10.1473   23.5165 O   0  0  0  0  0  0  0  0  0  0  0  0
   48.3132   11.0966   19.4159 O   0  0  0  0  0  0  0  0  0  0  0  0
   47.2810   11.5663   18.5598 C   0  0  0  0  0  0  0  0  0  0  0  0
   49.5911    5.9496   19.5009 H   0  0  0  0  0  0  0  0  0  0  0  0
   52.2485    4.5806   23.4430 H   0  0  0  0  0  0  0  0  0  0  0  0
   47.6581    6.6914   19.9511 H   0  0  0  0  0  0  0  0  0  0  0  0
   46.6182    7.2425   21.2194 H   0  0  0  0  0  0  0  0  0  0  0  0
   49.9691    8.4441   19.8962 H   0  0  0  0  0  0  0  0  0  0  0  0
   46.2606   11.7165   20.1584 H   0  0  0  0  0  0  0  0  0  0  0  0
   45.8992    9.4233   20.8655 H   0  0  0  0  0  0  0  0  0  0  0  0
   48.5843    6.9817   25.2074 H   0  0  0  0  0  0  0  0  0  0  0  0
   50.6616    5.6677   24.9301 H   0  0  0  0  0  0  0  0  0  0  0  0
   50.1279    4.5242   17.7620 H   0  0  0  0  0  0  0  0  0  0  0  0
   51.6763    4.5894   16.9132 H   0  0  0  0  0  0  0  0  0  0  0  0
   51.0954    6.0503   17.7201 H   0  0  0  0  0  0  0  0  0  0  0  0
   51.7425    9.2575   18.7313 H   0  0  0  0  0  0  0  0  0  0  0  0
   51.8349    9.9132   20.4123 H   0  0  0  0  0  0  0  0  0  0  0  0
   52.6314   10.7454   19.0719 H   0  0  0  0  0  0  0  0  0  0  0  0
   54.8979    2.8330   21.7211 H   0  0  0  0  0  0  0  0  0  0  0  0
   53.4845    2.7120   22.7750 H   0  0  0  0  0  0  0  0  0  0  0  0
   54.4337    4.2467   22.6745 H   0  0  0  0  0  0  0  0  0  0  0  0
   48.0028   14.6026   18.8186 H   0  0  0  0  0  0  0  0  0  0  0  0
   47.2333   13.8439   20.2163 H   0  0  0  0  0  0  0  0  0  0  0  0
   46.7819   13.3574   18.5353 H   0  0  0  0  0  0  0  0  0  0  0  0
   47.6027    8.3181   20.0446 H   0  0  0  0  0  0  0  0  0  0  0  0
   49.3921    6.6133   17.8690 H   0  0  0  0  0  0  0  0  0  0  0  0
   47.9766    9.2645   22.3006 H   0  0  0  0  0  0  0  0  0  0  0  0
   47.2603    6.7313   22.1907 H   0  0  0  0  0  0  0  0  0  0  0  0
   49.4762    7.8495   23.4335 H   0  0  0  0  0  0  0  0  0  0  0  0
   50.4400    9.3057   23.1963 H   0  0  0  0  0  0  0  0  0  0  0  0
   49.7335    8.8190   17.9678 H   0  0  0  0  0  0  0  0  0  0  0  0
   51.1385    9.0302   18.9989 H   0  0  0  0  0  0  0  0  0  0  0  0
   47.4855    4.5786   21.1186 H   0  0  0  0  0  0  0  0  0  0  0  0
   47.8567    5.1752   18.5987 H   0  0  0  0  0  0  0  0  0  0  0  0
   49.9428   11.0376   19.1782 H   0  0  0  0  0  0  0  0  0  0  0  0
   48.3706   10.2574   19.1964 H   0  0  0  0  0  0  0  0  0  0  0  0
   52.3599    7.4225   23.6535 H   0  0  0  0  0  0  0  0  0  0  0  0
   53.8502    5.8248   22.5089 H   0  0  0  0  0  0  0  0  0  0  0  0
   54.1653    4.5604   20.6529 H   0  0  0  0  0  0  0  0  0  0  0  0
   50.2232    4.1036   19.3048 H   0  0  0  0  0  0  0  0  0  0  0  0
   49.2786   12.3221   21.1300 H   0  0  0  0  0  0  0  0  0  0  0  0
   48.8870   11.5012   22.6329 H   0  0  0  0  0  0  0  0  0  0  0  0
   47.7182   11.4871   21.2928 H   0  0  0  0  0  0  0  0  0  0  0  0
   51.5715    6.2148   22.7965 H   0  0  0  0  0  0  0  0  0  0  0  0
   51.8467    9.4656   22.3462 H   0  0  0  0  0  0  0  0  0  0  0  0
   50.3650    4.3614   21.6431 H   0  0  0  0  0  0  0  0  0  0  0  0
   49.0074    5.7195   23.4606 H   0  0  0  0  0  0  0  0  0  0  0  0
   48.3575    5.2723   20.8901 H   0  0  0  0  0  0  0  0  0  0  0  0
   49.1582    4.8761   19.3921 H   0  0  0  0  0  0  0  0  0  0  0  0
   53.0176    8.2469   20.9002 H   0  0  0  0  0  0  0  0  0  0  0  0
   52.0568    7.9303   19.4673 H   0  0  0  0  0  0  0  0  0  0  0  0
   48.4659    7.8613   24.4447 H   0  0  0  0  0  0  0  0  0  0  0  0
   50.7310    9.1794   24.2552 H   0  0  0  0  0  0  0  0  0  0  0  0
   53.5620    6.0973   19.7169 H   0  0  0  0  0  0  0  0  0  0  0  0
   53.3127    5.9952   21.4261 H   0  0  0  0  0  0  0  0  0  0  0  0
   47.3624    6.6694   18.4859 H   0  0  0  0  0  0  0  0  0  0  0  0
   46.9538    9.0510   18.1125 H   0  0  0  0  0  0  0  0  0  0  0  0
   51.2233    5.4386   18.3070 H   0  0  0  0  0  0  0  0  0  0  0  0
   51.0178    3.7661   18.9017 H   0  0  0  0  0  0  0  0  0  0  0  0
   52.6152    4.3738   18.5491 H   0  0  0  0  0  0  0  0  0  0  0  0
   49.0438   10.5261   22.6178 H   0  0  0  0  0  0  0  0  0  0  0  0
   47.2586   12.6584   18.6294 H   0  0  0  0  0  0  0  0  0  0  0  0
   47.4832   11.3028   17.5164 H   0  0  0  0  0  0  0  0  0  0  0  0
   46.3025   11.1931   18.8796 H   0  0  0  0  0  0  0  0  0  0  0  0
  2  1  1  0
  3  1  2  0
  4  1  1  0
  5  3  1  0
  6  7  1  0
  7  4  2  0
  8  2  2  0
  9 12  2  0
 10  2  1  0
 11 14  2  0
 12 13  1  0
 13 10  1  0
 14 15  1  0
 15 13  2  0
 16 21  2  0
 17  5  1  0
 18  6  1  0
 19  9  1  0
 20 11  1  0
 21  4  1  0
 22 17  1  0
 23 19  1  0
 24 18  1  0
 25 20  1  0
 16  8  1  0
  6  5  2  0
 11  9  1  0
 27 26  1  0
 28 26  1  0
 29 27  2  0
 30 26  1  0
 30 31  1  0
 32 28  1  0
 33 27  1  0
 28 34  1  0
 32 35  1  0
 36 41  1  0
 26 37  1  6
 38 39  1  0
 39 30  1  0
 40 29  1  0
 41 37  1  0
 42 33  2  0
 43 42  1  0
 44 40  1  0
 39 45  1  0
 46 36  1  0
 29 31  1  0
 32 36  1  0
 38 34  2  0
 35 33  1  0
 43 40  2  0
 48 47  1  0
 49 47  1  0
 50 48  2  0
 51 47  1  0
 52 51  1  0
 53 49  1  0
 54 62  1  0
 55 48  1  0
 49 56  1  0
 53 57  1  0
 47 58  1  6
 59 60  1  0
 60 51  1  0
 61 50  1  0
 62 58  1  0
 63 55  2  0
 64 63  1  0
 65 54  1  0
 60 66  1  0
 67 61  1  0
 68 67  1  0
 52 50  1  0
 53 54  1  0
 59 56  2  0
 57 55  1  0
 64 61  2  0
  3 69  1  0
  7 70  1  0
 10 71  1  0
 10 72  1  0
 12 73  1  0
 14 74  1  0
 15 75  1  0
 16 76  1  0
 21 77  1  0
 22 78  1  0
 22 79  1  0
 22 80  1  0
 23 81  1  0
 23 82  1  0
 23 83  1  0
 24 84  1  0
 24 85  1  0
 24 86  1  0
 25 87  1  0
 25 88  1  0
 25 89  1  0
 28 90  1  1
 30 91  1  6
 32 92  1  1
 34 93  1  0
 35 94  1  0
 35 95  1  0
 37 96  1  0
 37 97  1  0
 38 98  1  0
 39 99  1  1
 41100  1  0
 41101  1  0
 42102  1  0
 43103  1  0
 44104  1  0
 45105  1  0
 46106  1  0
 46107  1  0
 46108  1  0
 49109  1  6
 51110  1  6
 53111  1  1
 56112  1  0
 57113  1  0
 57114  1  0
 58115  1  0
 58116  1  0
 59117  1  0
 60118  1  6
 62119  1  0
 62120  1  0
 63121  1  0
 64122  1  0
 65123  1  0
 65124  1  0
 65125  1  0
 66126  1  0
 68127  1  0
 68128  1  0
 68129  1  0
M  END
> <Uni-Dock RESULT> 
ENERGY=   -5.121  LOWER_BOUND=    1.684  UPPER_BOUND=    2.822
INTER + INTRA:          -5.121
INTER:                  -5.121
INTRA:                   0.000
UNBOUND:                 0.000

$$$$

     RDKit          3D

129139  0  0  0  0  0  0  0  0999 V2000
   48.5882   11.9508   21.4776 C   0  0  0  0  0  0  0  0  0  0  0  0
   48.5899   13.2985   21.0293 C   0  0  0  0  0  0  0  0  0  0  0  0
   48.0749   10.8437   20.7539 C   0  0  0  0  0  0  0  0  0  0  0  0
   49.1479   11.6991   22.7487 C   0  0  0  0  0  0  0  0  0  0  0  0
   48.1279    9.5385   21.2584 C   0  0  0  0  0  0  0  0  0  0  0  0
   48.6914    9.3087   22.5233 C   0  0  0  0  0  0  0  0  0  0  0  0
   49.1930   10.3881   23.2563 C   0  0  0  0  0  0  0  0  0  0  0  0
   49.0859   14.3263   21.7734 N   0  0  0  0  0  0  0  0  0  0  0  0
   50.8800   12.8948   17.1999 C   0  0  0  0  0  0  0  0  0  0  0  0
   48.0556   13.7144   19.6721 C   0  0  0  0  0  0  0  0  0  0  0  0
   50.9913   14.1085   16.4967 C   0  0  0  0  0  0  0  0  0  0  0  0
   49.9312   12.7692   18.2238 C   0  0  0  0  0  0  0  0  0  0  0  0
   49.1048   13.8455   18.5848 C   0  0  0  0  0  0  0  0  0  0  0  0
   50.1689   15.1815   16.8506 C   0  0  0  0  0  0  0  0  0  0  0  0
   49.2371   15.0507   17.8848 C   0  0  0  0  0  0  0  0  0  0  0  0
   49.6061   14.0369   22.9783 C   0  0  0  0  0  0  0  0  0  0  0  0
   47.6593    8.4307   20.5964 O   0  0  0  0  0  0  0  0  0  0  0  0
   48.7066    8.0039   22.9493 O   0  0  0  0  0  0  0  0  0  0  0  0
   51.7164   11.8798   16.8013 O   0  0  0  0  0  0  0  0  0  0  0  0
   51.9313   14.1447   15.4969 O   0  0  0  0  0  0  0  0  0  0  0  0
   49.6604   12.7602   23.5002 C   0  0  0  0  0  0  0  0  0  0  0  0
   47.1251    8.6083   19.2922 C   0  0  0  0  0  0  0  0  0  0  0  0
   51.8781   10.7864   17.6946 C   0  0  0  0  0  0  0  0  0  0  0  0
   49.2663    7.7281   24.2250 C   0  0  0  0  0  0  0  0  0  0  0  0
   52.0422   15.3425   14.7426 C   0  0  0  0  0  0  0  0  0  0  0  0
   48.9997   11.7348   19.0693 C   0  0  2  0  0  0  0  0  0  0  0  0
   49.6757   11.0929   20.2447 C   0  0  0  0  0  0  0  0  0  0  0  0
   48.8404   13.2331   19.3536 C   0  0  2  0  0  0  0  0  0  0  0  0
   49.1730    9.8276   20.4613 C   0  0  0  0  0  0  0  0  0  0  0  0
   47.7349   10.8501   19.0832 C   0  0  1  0  0  0  0  0  0  0  0  0
   48.1132    9.5396   19.6371 O   0  0  0  0  0  0  0  0  0  0  0  0
   50.2866   13.7714   19.6426 C   0  0  1  0  0  0  0  0  0  0  0  0
   50.6055   11.6772   21.0887 C   0  0  0  0  0  0  0  0  0  0  0  0
   47.8224   13.5174   20.4303 C   0  0  0  0  0  0  0  0  0  0  0  0
   50.8955   13.1484   20.9404 C   0  0  0  0  0  0  0  0  0  0  0  0
   51.2388   13.4765   18.5367 N   0  0  0  0  0  0  0  0  0  0  0  0
   49.8679   11.5210   17.8039 C   0  0  0  0  0  0  0  0  0  0  0  0
   46.7882   12.6941   20.6598 C   0  0  0  0  0  0  0  0  0  0  0  0
   46.5279   11.4399   19.8764 C   0  0  2  0  0  0  0  0  0  0  0  0
   49.6750    9.0350   21.4699 C   0  0  0  0  0  0  0  0  0  0  0  0
   50.6483   12.7816   17.3948 C   0  0  0  0  0  0  0  0  0  0  0  0
   51.1227   10.8865   22.1183 C   0  0  0  0  0  0  0  0  0  0  0  0
   50.6745    9.5608   22.2950 C   0  0  0  0  0  0  0  0  0  0  0  0
   49.1691    7.7874   21.6677 O   0  0  0  0  0  0  0  0  0  0  0  0
   45.9455   10.4886   20.7670 O   0  0  0  0  0  0  0  0  0  0  0  0
   51.9751   14.6655   18.1165 C   0  0  0  0  0  0  0  0  0  0  0  0
   50.4127   11.4700   20.5218 C   0  0  2  0  0  0  0  0  0  0  0  0
   49.5648   12.0448   19.4256 C   0  0  0  0  0  0  0  0  0  0  0  0
   49.6411   11.5744   21.8479 C   0  0  2  0  0  0  0  0  0  0  0  0
   50.3427   12.7128   18.5021 C   0  0  0  0  0  0  0  0  0  0  0  0
   51.6287   12.3975   20.3150 C   0  0  1  0  0  0  0  0  0  0  0  0
   51.6588   12.7857   18.8955 O   0  0  0  0  0  0  0  0  0  0  0  0
   48.2976   10.7890   21.6112 C   0  0  2  0  0  0  0  0  0  0  0  0
   48.5752    9.3467   21.3608 N   0  0  0  0  0  0  0  0  0  0  0  0
   48.1861   12.0122   19.3488 C   0  0  0  0  0  0  0  0  0  0  0  0
   49.4914   13.0022   22.3158 C   0  0  0  0  0  0  0  0  0  0  0  0
   47.4112   11.5200   20.5395 C   0  0  0  0  0  0  0  0  0  0  0  0
   50.7108    9.9921   20.1674 C   0  0  0  0  0  0  0  0  0  0  0  0
   50.4026   13.9408   22.0154 C   0  0  0  0  0  0  0  0  0  0  0  0
   51.6474   13.6664   21.2215 C   0  0  2  0  0  0  0  0  0  0  0  0
   49.7894   13.2873   17.3716 C   0  0  0  0  0  0  0  0  0  0  0  0
   49.9698    9.0081   21.0787 C   0  0  0  0  0  0  0  0  0  0  0  0
   47.5988   12.5842   18.2203 C   0  0  0  0  0  0  0  0  0  0  0  0
   48.3972   13.1963   17.2282 C   0  0  0  0  0  0  0  0  0  0  0  0
   47.6429    8.6419   20.4948 C   0  0  0  0  0  0  0  0  0  0  0  0
   51.9672   14.8487   20.4890 O   0  0  0  0  0  0  0  0  0  0  0  0
   50.6501   13.9159   16.5203 O   0  0  0  0  0  0  0  0  0  0  0  0
   50.0858   14.5149   15.3621 C   0  0  0  0  0  0  0  0  0  0  0  0
   47.6335   11.0159   19.7793 H   0  0  0  0  0  0  0  0  0  0  0  0
   49.6315   10.2305   24.2367 H   0  0  0  0  0  0  0  0  0  0  0  0
   47.2575   13.0508   19.3244 H   0  0  0  0  0  0  0  0  0  0  0  0
   47.5573   14.6841   19.8102 H   0  0  0  0  0  0  0  0  0  0  0  0
   49.8246   11.8281   18.7492 H   0  0  0  0  0  0  0  0  0  0  0  0
   50.2287   16.1385   16.3434 H   0  0  0  0  0  0  0  0  0  0  0  0
   48.6142   15.9057   18.1403 H   0  0  0  0  0  0  0  0  0  0  0  0
   49.9943   14.8864   23.5328 H   0  0  0  0  0  0  0  0  0  0  0  0
   50.0985   12.6040   24.4808 H   0  0  0  0  0  0  0  0  0  0  0  0
   46.2302    9.2385   19.3151 H   0  0  0  0  0  0  0  0  0  0  0  0
   46.8285    7.6248   18.9150 H   0  0  0  0  0  0  0  0  0  0  0  0
   47.8781    9.0129   18.6077 H   0  0  0  0  0  0  0  0  0  0  0  0
   50.9776   10.1644   17.7165 H   0  0  0  0  0  0  0  0  0  0  0  0
   52.1501   11.1243   18.7004 H   0  0  0  0  0  0  0  0  0  0  0  0
   52.6988   10.1672   17.3196 H   0  0  0  0  0  0  0  0  0  0  0  0
   49.1907    6.6501   24.3968 H   0  0  0  0  0  0  0  0  0  0  0  0
   48.7058    8.2314   25.0193 H   0  0  0  0  0  0  0  0  0  0  0  0
   50.3273    7.9961   24.2567 H   0  0  0  0  0  0  0  0  0  0  0  0
   52.8157   15.1897   13.9839 H   0  0  0  0  0  0  0  0  0  0  0  0
   52.3580   16.1795   15.3740 H   0  0  0  0  0  0  0  0  0  0  0  0
   51.1068   15.5700   14.2210 H   0  0  0  0  0  0  0  0  0  0  0  0
   48.4534   13.7449   18.4607 H   0  0  0  0  0  0  0  0  0  0  0  0
   47.3860   10.6559   18.0611 H   0  0  0  0  0  0  0  0  0  0  0  0
   50.2167   14.8578   19.7939 H   0  0  0  0  0  0  0  0  0  0  0  0
   47.9151   14.4360   21.0050 H   0  0  0  0  0  0  0  0  0  0  0  0
   50.4578   13.6625   21.8058 H   0  0  0  0  0  0  0  0  0  0  0  0
   51.9781   13.3221   20.9819 H   0  0  0  0  0  0  0  0  0  0  0  0
   49.2319   11.2506   16.9520 H   0  0  0  0  0  0  0  0  0  0  0  0
   50.5721   10.6890   17.9370 H   0  0  0  0  0  0  0  0  0  0  0  0
   46.0570   12.9503   21.4233 H   0  0  0  0  0  0  0  0  0  0  0  0
   45.7440   11.6918   19.1513 H   0  0  0  0  0  0  0  0  0  0  0  0
   51.4361   12.4780   16.6941 H   0  0  0  0  0  0  0  0  0  0  0  0
   49.9843   13.4542   16.8353 H   0  0  0  0  0  0  0  0  0  0  0  0
   51.8561   11.2986   22.8074 H   0  0  0  0  0  0  0  0  0  0  0  0
   51.0910    8.9731   23.1076 H   0  0  0  0  0  0  0  0  0  0  0  0
   49.6359    7.3782   22.4135 H   0  0  0  0  0  0  0  0  0  0  0  0
   46.5634    9.7303   20.8029 H   0  0  0  0  0  0  0  0  0  0  0  0
   52.7454   14.4047   17.3824 H   0  0  0  0  0  0  0  0  0  0  0  0
   52.4954   15.1183   18.9680 H   0  0  0  0  0  0  0  0  0  0  0  0
   51.3152   15.4191   17.6724 H   0  0  0  0  0  0  0  0  0  0  0  0
   50.2002   11.0774   22.6536 H   0  0  0  0  0  0  0  0  0  0  0  0
   52.5653   11.8564   20.4982 H   0  0  0  0  0  0  0  0  0  0  0  0
   47.7226   10.8110   22.5471 H   0  0  0  0  0  0  0  0  0  0  0  0
   48.6434   13.2572   22.9463 H   0  0  0  0  0  0  0  0  0  0  0  0
   46.9703   12.4034   21.0223 H   0  0  0  0  0  0  0  0  0  0  0  0
   46.5615   10.9114   20.2168 H   0  0  0  0  0  0  0  0  0  0  0  0
   51.7827    9.7861   20.2777 H   0  0  0  0  0  0  0  0  0  0  0  0
   50.4630    9.7643   19.1225 H   0  0  0  0  0  0  0  0  0  0  0  0
   50.2814   14.9506   22.4001 H   0  0  0  0  0  0  0  0  0  0  0  0
   52.4530   13.5395   21.9561 H   0  0  0  0  0  0  0  0  0  0  0  0
   50.0648    7.9940   20.6701 H   0  0  0  0  0  0  0  0  0  0  0  0
   50.5002    8.9582   22.0393 H   0  0  0  0  0  0  0  0  0  0  0  0
   46.5166   12.5911   18.1101 H   0  0  0  0  0  0  0  0  0  0  0  0
   47.8884   13.6298   16.3729 H   0  0  0  0  0  0  0  0  0  0  0  0
   47.7257    8.9583   19.4497 H   0  0  0  0  0  0  0  0  0  0  0  0
   46.6111    8.7791   20.8348 H   0  0  0  0  0  0  0  0  0  0  0  0
   47.8234    7.5613   20.5307 H   0  0  0  0  0  0  0  0  0  0  0  0
   51.8638   14.6225   19.5434 H   0  0  0  0  0  0  0  0  0  0  0  0
   50.8996   14.9723   14.7907 H   0  0  0  0  0  0  0  0  0  0  0  0
   49.6095   13.7648   14.7220 H   0  0  0  0  0  0  0  0  0  0  0  0
   49.3820   15.3093   15.6315 H   0  0  0  0  0  0  0  0  0  0  0  0
  2  1  1  0
  3  1  2  0
  4  1  1  0
  5  3  1  0
  6  7  1  0
  7  4  2  0
  8  2  2  0
  9 12  2  0
 10  2  1  0
 11 14  2  0
 12 13  1  0
 13 10  1  0
 14 15  1  0
 15 13  2  0
 16 21  2  0
 17  5  1  0
 18  6  1  0
 19  9  1  0
 20 11  1  0
 21  4  1  0
 22 17  1  0
 23 19  1  0
 24 18  1  0
 25 20  1  0
 16  8  1  0
  6  5  2  0
 11  9  1  0
 27 26  1  0
 28 26  1  0
 29 27  2  0
 30 26  1  0
 30 31  1  0
 32 28  1  0
 33 27  1  0
 28 34  1  0
 32 35  1  0
 36 41  1  0
 26 37  1  6
 38 39  1  0
 39 30  1  0
 40 29  1  0
 41 37  1  0
 42 33  2  0
 43 42  1  0
 44 40  1  0
 39 45  1  0
 46 36  1  0
 29 31  1  0
 32 36  1  0
 38 34  2  0
 35 33  1  0
 43 40  2  0
 48 47  1  0
 49 47  1  0
 50 48  2  0
 51 47  1  0
 52 51  1  0
 53 49  1  0
 54 62  1  0
 55 48  1  0
 49 56  1  0
 53 57  1  0
 47 58  1  6
 59 60  1  0
 60 51  1  0
 61 50  1  0
 62 58  1  0
 63 55  2  0
 64 63  1  0
 65 54  1  0
 60 66  1  0
 67 61  1  0
 68 67  1  0
 52 50  1  0
 53 54  1  0
 59 56  2  0
 57 55  1  0
 64 61  2  0
  3 69  1  0
  7 70  1  0
 10 71  1  0
 10 72  1  0
 12 73  1  0
 14 74  1  0
 15 75  1  0
 16 76  1  0
 21 77  1  0
 22 78  1  0
 22 79  1  0
 22 80  1  0
 23 81  1  0
 23 82  1  0
 23 83  1  0
 24 84  1  0
 24 85  1  0
 24 86  1  0
 25 87  1  0
 25 88  1  0
 25 89  1  0
 28 90  1  1
 30 91  1  6
 32 92  1  1
 34 93  1  0
 35 94  1  0
 35 95  1  0
 37 96  1  0
 37 97  1  0
 38 98  1  0
 39 99  1  1
 41100  1  0
 41101  1  0
 42102  1  0
 43103  1  0
 44104  1  0
 45105  1  0
 46106  1  0
 46107  1  0
 46108  1  0
 49109  1  6
 51110  1  6
 53111  1  1
 56112  1  0
 57113  1  0
 57114  1  0
 58115  1  0
 58116  1  0
 59117  1  0
 60118  1  6
 62119  1  0
 62120  1  0
 63121  1  0
 64122  1  0
 65123  1  0
 65124  1  0
 65125  1  0
 66126  1  0
 68127  1  0
 68128  1  0
 68129  1  0
M  END
> <Uni-Dock RESULT> 
ENERGY=   -4.964  LOWER_BOUND=    3.600  UPPER_BOUND=    5.757
INTER + INTRA:          -4.964
INTER:                  -4.964
INTRA:                   0.000
UNBOUND:                 0.000

$$$$

     RDKit          3D

129139  0  0  0  0  0  0  0  0999 V2000
   48.0427   11.1700   19.2298 C   0  0  0  0  0  0  0  0  0  0  0  0
   47.8893   11.6601   20.5541 C   0  0  0  0  0  0  0  0  0  0  0  0
   48.4231   11.9457   18.1045 C   0  0  0  0  0  0  0  0  0  0  0  0
   47.7973    9.7953   19.0245 C   0  0  0  0  0  0  0  0  0  0  0  0
   48.5714   11.3824   16.8310 C   0  0  0  0  0  0  0  0  0  0  0  0
   48.3257   10.0126   16.6481 C   0  0  0  0  0  0  0  0  0  0  0  0
   47.9397    9.2337   17.7427 C   0  0  0  0  0  0  0  0  0  0  0  0
   47.5086   10.8705   21.5970 N   0  0  0  0  0  0  0  0  0  0  0  0
   51.9707   13.3563   21.2875 C   0  0  0  0  0  0  0  0  0  0  0  0
   48.1534   13.1050   20.9319 C   0  0  0  0  0  0  0  0  0  0  0  0
   52.0900   13.9740   22.5461 C   0  0  0  0  0  0  0  0  0  0  0  0
   50.6992   13.0775   20.7678 C   0  0  0  0  0  0  0  0  0  0  0  0
   49.5355   13.3763   21.4945 C   0  0  0  0  0  0  0  0  0  0  0  0
   50.9344   14.2759   23.2718 C   0  0  0  0  0  0  0  0  0  0  0  0
   49.6713   13.9784   22.7511 C   0  0  0  0  0  0  0  0  0  0  0  0
   47.2839    9.5684   21.3510 C   0  0  0  0  0  0  0  0  0  0  0  0
   48.9495   12.0823   15.7119 O   0  0  0  0  0  0  0  0  0  0  0  0
   48.4915    9.5348   15.3721 O   0  0  0  0  0  0  0  0  0  0  0  0
   53.1448   13.0877   20.6259 O   0  0  0  0  0  0  0  0  0  0  0  0
   53.3683   14.2299   22.9760 O   0  0  0  0  0  0  0  0  0  0  0  0
   47.4142    8.9932   20.1030 C   0  0  0  0  0  0  0  0  0  0  0  0
   49.2563   13.4615   15.8586 C   0  0  0  0  0  0  0  0  0  0  0  0
   53.0820   12.1686   19.5438 C   0  0  0  0  0  0  0  0  0  0  0  0
   48.2508    8.1541   15.1433 C   0  0  0  0  0  0  0  0  0  0  0  0
   53.5221   14.8873   24.2250 C   0  0  0  0  0  0  0  0  0  0  0  0
   49.8260   12.8439   19.4129 C   0  0  2  0  0  0  0  0  0  0  0  0
   49.8444   11.4401   18.8842 C   0  0  0  0  0  0  0  0  0  0  0  0
   49.0771   12.8540   20.7508 C   0  0  2  0  0  0  0  0  0  0  0  0
   49.7320   11.4382   17.5102 C   0  0  0  0  0  0  0  0  0  0  0  0
   49.1428   13.4890   18.1884 C   0  0  1  0  0  0  0  0  0  0  0  0
   49.5079   12.6947   17.0038 O   0  0  0  0  0  0  0  0  0  0  0  0
   49.8265   11.8254   21.6702 C   0  0  1  0  0  0  0  0  0  0  0  0
   49.8678   10.2727   19.6291 C   0  0  0  0  0  0  0  0  0  0  0  0
   47.5961   12.6131   20.5920 C   0  0  0  0  0  0  0  0  0  0  0  0
   49.7172   10.3643   21.1255 C   0  0  0  0  0  0  0  0  0  0  0  0
   51.2784   12.1274   21.8020 N   0  0  0  0  0  0  0  0  0  0  0  0
   51.2831   13.3312   19.6132 C   0  0  0  0  0  0  0  0  0  0  0  0
   46.9408   12.9555   19.4725 C   0  0  0  0  0  0  0  0  0  0  0  0
   47.5913   13.6166   18.2916 C   0  0  2  0  0  0  0  0  0  0  0  0
   49.7639   10.2561   16.8040 C   0  0  0  0  0  0  0  0  0  0  0  0
   51.7179   13.3245   21.0885 C   0  0  0  0  0  0  0  0  0  0  0  0
   49.8984    9.0648   18.9270 C   0  0  0  0  0  0  0  0  0  0  0  0
   49.8687    9.0573   17.5168 C   0  0  0  0  0  0  0  0  0  0  0  0
   49.6546   10.2729   15.4478 O   0  0  0  0  0  0  0  0  0  0  0  0
   46.9279   13.1500   17.1171 O   0  0  0  0  0  0  0  0  0  0  0  0
   51.7087   12.1484   23.1973 C   0  0  0  0  0  0  0  0  0  0  0  0
   50.1186   10.8215   19.4358 C   0  0  2  0  0  0  0  0  0  0  0  0
   49.9458   12.2560   19.8400 C   0  0  0  0  0  0  0  0  0  0  0  0
   48.7323   10.2181   19.1549 C   0  0  2  0  0  0  0  0  0  0  0  0
   50.8626   12.6068   20.8098 C   0  0  0  0  0  0  0  0  0  0  0  0
   50.8649   10.3643   20.7069 C   0  0  1  0  0  0  0  0  0  0  0  0
   51.5973   11.5256   21.2377 O   0  0  0  0  0  0  0  0  0  0  0  0
   48.1058   11.1205   18.0275 C   0  0  2  0  0  0  0  0  0  0  0  0
   48.9064   11.0192   16.7750 N   0  0  0  0  0  0  0  0  0  0  0  0
   48.9666   13.1234   19.3966 C   0  0  0  0  0  0  0  0  0  0  0  0
   47.9051   10.0680   20.4091 C   0  0  0  0  0  0  0  0  0  0  0  0
   47.8414   12.5730   18.5650 C   0  0  0  0  0  0  0  0  0  0  0  0
   51.0064   10.7884   18.1672 C   0  0  0  0  0  0  0  0  0  0  0  0
   48.4740    9.8660   21.6078 C   0  0  0  0  0  0  0  0  0  0  0  0
   49.9567    9.7475   21.8145 C   0  0  2  0  0  0  0  0  0  0  0  0
   50.9308   13.8960   21.3073 C   0  0  0  0  0  0  0  0  0  0  0  0
   50.2220   10.3950   16.9111 C   0  0  0  0  0  0  0  0  0  0  0  0
   49.0089   14.4308   19.8811 C   0  0  0  0  0  0  0  0  0  0  0  0
   49.9985   14.8193   20.8118 C   0  0  0  0  0  0  0  0  0  0  0  0
   48.9312   12.1941   15.9177 C   0  0  0  0  0  0  0  0  0  0  0  0
   50.2592   10.2633   23.1103 O   0  0  0  0  0  0  0  0  0  0  0  0
   51.8798   14.1365   22.2572 O   0  0  0  0  0  0  0  0  0  0  0  0
   51.9483   15.4568   22.7775 C   0  0  0  0  0  0  0  0  0  0  0  0
   48.6085   13.0049   18.2386 H   0  0  0  0  0  0  0  0  0  0  0  0
   47.7442    8.1729   17.6209 H   0  0  0  0  0  0  0  0  0  0  0  0
   47.9632   13.7885   20.0984 H   0  0  0  0  0  0  0  0  0  0  0  0
   47.3990   13.3803   21.6822 H   0  0  0  0  0  0  0  0  0  0  0  0
   50.6031   12.6264   19.7878 H   0  0  0  0  0  0  0  0  0  0  0  0
   50.9798   14.7413   24.2504 H   0  0  0  0  0  0  0  0  0  0  0  0
   48.7904   14.2213   23.3420 H   0  0  0  0  0  0  0  0  0  0  0  0
   46.9883    8.9772   22.2129 H   0  0  0  0  0  0  0  0  0  0  0  0
   47.2179    7.9327   19.9824 H   0  0  0  0  0  0  0  0  0  0  0  0
   48.3768   14.0292   16.1792 H   0  0  0  0  0  0  0  0  0  0  0  0
   49.5584   13.8434   14.8787 H   0  0  0  0  0  0  0  0  0  0  0  0
   50.0962   13.6093   16.5456 H   0  0  0  0  0  0  0  0  0  0  0  0
   52.5861   12.6191   18.6781 H   0  0  0  0  0  0  0  0  0  0  0  0
   52.5935   11.2331   19.8371 H   0  0  0  0  0  0  0  0  0  0  0  0
   54.1082   11.9287   19.2492 H   0  0  0  0  0  0  0  0  0  0  0  0
   48.4270    7.9558   14.0818 H   0  0  0  0  0  0  0  0  0  0  0  0
   47.2105    7.8930   15.3620 H   0  0  0  0  0  0  0  0  0  0  0  0
   48.9453    7.5320   15.7173 H   0  0  0  0  0  0  0  0  0  0  0  0
   54.5930   15.0287   24.3990 H   0  0  0  0  0  0  0  0  0  0  0  0
   53.1310   14.2756   25.0446 H   0  0  0  0  0  0  0  0  0  0  0  0
   53.0550   15.8775   24.2114 H   0  0  0  0  0  0  0  0  0  0  0  0
   49.1506   13.8486   21.2140 H   0  0  0  0  0  0  0  0  0  0  0  0
   49.5386   14.4967   18.0092 H   0  0  0  0  0  0  0  0  0  0  0  0
   49.3497   11.8501   22.6602 H   0  0  0  0  0  0  0  0  0  0  0  0
   47.0457   12.1857   21.4268 H   0  0  0  0  0  0  0  0  0  0  0  0
   48.7240    9.9752   21.3842 H   0  0  0  0  0  0  0  0  0  0  0  0
   50.4512    9.7127   21.6158 H   0  0  0  0  0  0  0  0  0  0  0  0
   51.3877   14.3631   19.2558 H   0  0  0  0  0  0  0  0  0  0  0  0
   51.9908   12.7305   19.0266 H   0  0  0  0  0  0  0  0  0  0  0  0
   45.8668   12.7955   19.4087 H   0  0  0  0  0  0  0  0  0  0  0  0
   47.3493   14.6839   18.3695 H   0  0  0  0  0  0  0  0  0  0  0  0
   52.8123   13.3963   21.1178 H   0  0  0  0  0  0  0  0  0  0  0  0
   51.3390   14.2291   21.5830 H   0  0  0  0  0  0  0  0  0  0  0  0
   49.9182    8.1204   19.4659 H   0  0  0  0  0  0  0  0  0  0  0  0
   49.8878    8.1026   16.9996 H   0  0  0  0  0  0  0  0  0  0  0  0
   49.6953    9.3597   15.1221 H   0  0  0  0  0  0  0  0  0  0  0  0
   47.6049   12.6852   16.5844 H   0  0  0  0  0  0  0  0  0  0  0  0
   52.7963   12.2615   23.2655 H   0  0  0  0  0  0  0  0  0  0  0  0
   51.4611   11.2025   23.6919 H   0  0  0  0  0  0  0  0  0  0  0  0
   51.2403   12.9657   23.7571 H   0  0  0  0  0  0  0  0  0  0  0  0
   48.8344    9.1941   18.7678 H   0  0  0  0  0  0  0  0  0  0  0  0
   51.6276    9.6150   20.4611 H   0  0  0  0  0  0  0  0  0  0  0  0
   47.1206   10.7075   17.7711 H   0  0  0  0  0  0  0  0  0  0  0  0
   46.8215   10.0834   20.3229 H   0  0  0  0  0  0  0  0  0  0  0  0
   46.9553   12.5291   19.2137 H   0  0  0  0  0  0  0  0  0  0  0  0
   47.5809   13.2720   17.7649 H   0  0  0  0  0  0  0  0  0  0  0  0
   51.8097   10.0509   18.2875 H   0  0  0  0  0  0  0  0  0  0  0  0
   51.5018   11.7517   17.9896 H   0  0  0  0  0  0  0  0  0  0  0  0
   47.8459    9.7257   22.4843 H   0  0  0  0  0  0  0  0  0  0  0  0
   50.1707    8.6719   21.8605 H   0  0  0  0  0  0  0  0  0  0  0  0
   50.8457   10.5695   16.0250 H   0  0  0  0  0  0  0  0  0  0  0  0
   50.0738    9.3067   16.9213 H   0  0  0  0  0  0  0  0  0  0  0  0
   48.2594   15.1549   19.5693 H   0  0  0  0  0  0  0  0  0  0  0  0
   49.9828   15.8475   21.1596 H   0  0  0  0  0  0  0  0  0  0  0  0
   49.5065   13.0165   16.3560 H   0  0  0  0  0  0  0  0  0  0  0  0
   47.9161   12.5393   15.6957 H   0  0  0  0  0  0  0  0  0  0  0  0
   49.3798   11.9546   14.9467 H   0  0  0  0  0  0  0  0  0  0  0  0
   50.8044   11.0624   22.9675 H   0  0  0  0  0  0  0  0  0  0  0  0
   52.7514   15.4831   23.5208 H   0  0  0  0  0  0  0  0  0  0  0  0
   52.1972   16.1782   21.9921 H   0  0  0  0  0  0  0  0  0  0  0  0
   51.0172   15.7301   23.2850 H   0  0  0  0  0  0  0  0  0  0  0  0
  2  1  1  0
  3  1  2  0
  4  1  1  0
  5  3  1  0
  6  7  1  0
  7  4  2  0
  8  2  2  0
  9 12  2  0
 10  2  1  0
 11 14  2  0
 12 13  1  0
 13 10  1  0
 14 15  1  0
 15 13  2  0
 16 21  2  0
 17  5  1  0
 18  6  1  0
 19  9  1  0
 20 11  1  0
 21  4  1  0
 22 17  1  0
 23 19  1  0
 24 18  1  0
 25 20  1  0
 16  8  1  0
  6  5  2  0
 11  9  1  0
 27 26  1  0
 28 26  1  0
 29 27  2  0
 30 26  1  0
 30 31  1  0
 32 28  1  0
 33 27  1  0
 28 34  1  0
 32 35  1  0
 36 41  1  0
 26 37  1  6
 38 39  1  0
 39 30  1  0
 40 29  1  0
 41 37  1  0
 42 33  2  0
 43 42  1  0
 44 40  1  0
 39 45  1  0
 46 36  1  0
 29 31  1  0
 32 36  1  0
 38 34  2  0
 35 33  1  0
 43 40  2  0
 48 47  1  0
 49 47  1  0
 50 48  2  0
 51 47  1  0
 52 51  1  0
 53 49  1  0
 54 62  1  0
 55 48  1  0
 49 56  1  0
 53 57  1  0
 47 58  1  6
 59 60  1  0
 60 51  1  0
 61 50  1  0
 62 58  1  0
 63 55  2  0
 64 63  1  0
 65 54  1  0
 60 66  1  0
 67 61  1  0
 68 67  1  0
 52 50  1  0
 53 54  1  0
 59 56  2  0
 57 55  1  0
 64 61  2  0
  3 69  1  0
  7 70  1  0
 10 71  1  0
 10 72  1  0
 12 73  1  0
 14 74  1  0
 15 75  1  0
 16 76  1  0
 21 77  1  0
 22 78  1  0
 22 79  1  0
 22 80  1  0
 23 81  1  0
 23 82  1  0
 23 83  1  0
 24 84  1  0
 24 85  1  0
 24 86  1  0
 25 87  1  0
 25 88  1  0
 25 89  1  0
 28 90  1  1
 30 91  1  6
 32 92  1  1
 34 93  1  0
 35 94  1  0
 35 95  1  0
 37 96  1  0
 37 97  1  0
 38 98  1  0
 39 99  1  1
 41100  1  0
 41101  1  0
 42102  1  0
 43103  1  0
 44104  1  0
 45105  1  0
 46106  1  0
 46107  1  0
 46108  1  0
 49109  1  6
 51110  1  6
 53111  1  1
 56112  1  0
 57113  1  0
 57114  1  0
 58115  1  0
 58116  1  0
 59117  1  0
 60118  1  6
 62119  1  0
 62120  1  0
 63121  1  0
 64122  1  0
 65123  1  0
 65124  1  0
 65125  1  0
 66126  1  0
 68127  1  0
 68128  1  0
 68129  1  0
M  END
> <Uni-Dock RESULT> 
ENERGY=   -4.886  LOWER_BOUND=    3.649  UPPER_BOUND=    6.225
INTER + INTRA:          -4.886
INTER:                  -4.886
INTRA:                   0.000
UNBOUND:                 0.000

$$$$

     RDKit          3D

129139  0  0  0  0  0  0  0  0999 V2000
   49.0839   14.0729   19.2093 C   0  0  0  0  0  0  0  0  0  0  0  0
   48.8162   13.9164   17.8232 C   0  0  0  0  0  0  0  0  0  0  0  0
   48.7151   13.1560   20.2271 C   0  0  0  0  0  0  0  0  0  0  0  0
   49.7774   15.2389   19.5987 C   0  0  0  0  0  0  0  0  0  0  0  0
   49.0337   13.3741   21.5732 C   0  0  0  0  0  0  0  0  0  0  0  0
   49.7266   14.5385   21.9397 C   0  0  0  0  0  0  0  0  0  0  0  0
   50.0895   15.4591   20.9525 C   0  0  0  0  0  0  0  0  0  0  0  0
   49.1833   14.8374   16.8889 N   0  0  0  0  0  0  0  0  0  0  0  0
   50.8318    9.9950   17.0280 C   0  0  0  0  0  0  0  0  0  0  0  0
   48.1123   12.6995   17.2540 C   0  0  0  0  0  0  0  0  0  0  0  0
   50.6748    9.5568   15.7001 C   0  0  0  0  0  0  0  0  0  0  0  0
   50.0031   11.0088   17.5280 C   0  0  0  0  0  0  0  0  0  0  0  0
   49.0336   11.6208   16.7174 C   0  0  0  0  0  0  0  0  0  0  0  0
   49.7091   10.1610   14.8905 C   0  0  0  0  0  0  0  0  0  0  0  0
   48.8989   11.1830   15.3945 C   0  0  0  0  0  0  0  0  0  0  0  0
   49.8394   15.9325   17.3090 C   0  0  0  0  0  0  0  0  0  0  0  0
   48.7137   12.5153   22.5956 O   0  0  0  0  0  0  0  0  0  0  0  0
   50.0017   14.6815   23.2769 O   0  0  0  0  0  0  0  0  0  0  0  0
   51.7976    9.3587   17.7702 O   0  0  0  0  0  0  0  0  0  0  0  0
   51.5122    8.5484   15.2925 O   0  0  0  0  0  0  0  0  0  0  0  0
   50.1557   16.1735   18.6308 C   0  0  0  0  0  0  0  0  0  0  0  0
   48.0554   11.3004   22.2662 C   0  0  0  0  0  0  0  0  0  0  0  0
   52.2168    9.9964   18.9691 C   0  0  0  0  0  0  0  0  0  0  0  0
   50.6998   15.8470   23.6904 C   0  0  0  0  0  0  0  0  0  0  0  0
   51.3535    8.0570   13.9699 C   0  0  0  0  0  0  0  0  0  0  0  0
   49.3351   11.6577   18.8642 C   0  0  2  0  0  0  0  0  0  0  0  0
   50.2030   12.6438   19.5886 C   0  0  0  0  0  0  0  0  0  0  0  0
   48.9411   12.2550   17.5081 C   0  0  2  0  0  0  0  0  0  0  0  0
   49.9464   12.6121   20.9428 C   0  0  0  0  0  0  0  0  0  0  0  0
   48.2483   11.5391   19.9538 C   0  0  1  0  0  0  0  0  0  0  0  0
   48.8909   11.7908   21.2542 O   0  0  0  0  0  0  0  0  0  0  0  0
   50.2900   12.5895   16.7780 C   0  0  1  0  0  0  0  0  0  0  0  0
   51.0810   13.5517   19.0201 C   0  0  0  0  0  0  0  0  0  0  0  0
   47.9774   13.4088   17.6369 C   0  0  0  0  0  0  0  0  0  0  0  0
   51.0985   13.7020   17.5210 C   0  0  0  0  0  0  0  0  0  0  0  0
   51.1886   11.4077   16.6658 N   0  0  0  0  0  0  0  0  0  0  0  0
   50.1246   10.3404   18.6580 C   0  0  0  0  0  0  0  0  0  0  0  0
   47.1233   13.5042   18.6672 C   0  0  0  0  0  0  0  0  0  0  0  0
   47.0237   12.4877   19.7678 C   0  0  2  0  0  0  0  0  0  0  0  0
   50.6564   13.4110   21.8116 C   0  0  0  0  0  0  0  0  0  0  0  0
   50.6394   10.1715   17.2186 C   0  0  0  0  0  0  0  0  0  0  0  0
   51.8074   14.3709   19.8885 C   0  0  0  0  0  0  0  0  0  0  0  0
   51.6115   14.2854   21.2828 C   0  0  0  0  0  0  0  0  0  0  0  0
   50.3921   13.3648   23.1455 O   0  0  0  0  0  0  0  0  0  0  0  0
   46.6875   13.1834   20.9679 O   0  0  0  0  0  0  0  0  0  0  0  0
   51.6718   11.2148   15.3013 C   0  0  0  0  0  0  0  0  0  0  0  0
   50.8829   12.9626   19.1434 C   0  0  2  0  0  0  0  0  0  0  0  0
   49.8642   12.0469   18.5311 C   0  0  0  0  0  0  0  0  0  0  0  0
   50.2121   14.3123   19.4487 C   0  0  2  0  0  0  0  0  0  0  0  0
   50.4389   11.2518   17.5607 C   0  0  0  0  0  0  0  0  0  0  0  0
   51.8992   12.9036   17.9834 C   0  0  1  0  0  0  0  0  0  0  0  0
   51.7492   11.5965   17.3234 O   0  0  0  0  0  0  0  0  0  0  0  0
   49.0109   13.9729   20.4079 C   0  0  2  0  0  0  0  0  0  0  0  0
   49.5141   13.4154   21.6948 N   0  0  0  0  0  0  0  0  0  0  0  0
   48.5104   12.0226   18.8040 C   0  0  0  0  0  0  0  0  0  0  0  0
   49.8542   15.0739   18.1951 C   0  0  0  0  0  0  0  0  0  0  0  0
   47.9292   13.1154   19.6574 C   0  0  0  0  0  0  0  0  0  0  0  0
   51.4041   12.2952   20.4400 C   0  0  0  0  0  0  0  0  0  0  0  0
   50.5619   14.9384   17.0627 C   0  0  0  0  0  0  0  0  0  0  0  0
   51.7688   14.0535   16.9381 C   0  0  2  0  0  0  0  0  0  0  0  0
   49.7067   10.2903   16.8872 C   0  0  0  0  0  0  0  0  0  0  0  0
   50.9196   13.0110   21.7052 C   0  0  0  0  0  0  0  0  0  0  0  0
   47.7454   11.0639   18.1396 C   0  0  0  0  0  0  0  0  0  0  0  0
   48.3445   10.1892   17.2056 C   0  0  0  0  0  0  0  0  0  0  0  0
   48.6529   12.4610   22.3754 C   0  0  0  0  0  0  0  0  0  0  0  0
   51.8196   13.5714   15.5958 O   0  0  0  0  0  0  0  0  0  0  0  0
   50.3752    9.5539   15.9536 O   0  0  0  0  0  0  0  0  0  0  0  0
   49.6257    8.5709   15.2531 C   0  0  0  0  0  0  0  0  0  0  0  0
   48.1750   12.2581   19.9508 H   0  0  0  0  0  0  0  0  0  0  0  0
   50.6247   16.3659   21.2165 H   0  0  0  0  0  0  0  0  0  0  0  0
   47.4165   12.2543   17.9724 H   0  0  0  0  0  0  0  0  0  0  0  0
   47.4656   13.0577   16.4408 H   0  0  0  0  0  0  0  0  0  0  0  0
   50.1034   11.3300   18.5575 H   0  0  0  0  0  0  0  0  0  0  0  0
   49.5616    9.8629   13.8581 H   0  0  0  0  0  0  0  0  0  0  0  0
   48.1591   11.6372   14.7381 H   0  0  0  0  0  0  0  0  0  0  0  0
   50.1169   16.6356   16.5288 H   0  0  0  0  0  0  0  0  0  0  0  0
   50.6903   17.0807   18.8935 H   0  0  0  0  0  0  0  0  0  0  0  0
   47.0694   11.4918   21.8308 H   0  0  0  0  0  0  0  0  0  0  0  0
   47.9053   10.7389   23.1933 H   0  0  0  0  0  0  0  0  0  0  0  0
   48.6703   10.6848   21.6013 H   0  0  0  0  0  0  0  0  0  0  0  0
   51.4425    9.9254   19.7397 H   0  0  0  0  0  0  0  0  0  0  0  0
   52.5045   11.0384   18.7923 H   0  0  0  0  0  0  0  0  0  0  0  0
   53.1002    9.4665   19.3382 H   0  0  0  0  0  0  0  0  0  0  0  0
   50.8264   15.7928   24.7759 H   0  0  0  0  0  0  0  0  0  0  0  0
   50.1250   16.7516   23.4675 H   0  0  0  0  0  0  0  0  0  0  0  0
   51.6973   15.8897   23.2413 H   0  0  0  0  0  0  0  0  0  0  0  0
   52.0794    7.2515   13.8229 H   0  0  0  0  0  0  0  0  0  0  0  0
   51.5680    8.8355   13.2305 H   0  0  0  0  0  0  0  0  0  0  0  0
   50.3546    7.6339   13.8219 H   0  0  0  0  0  0  0  0  0  0  0  0
   48.4018   11.5056   16.9109 H   0  0  0  0  0  0  0  0  0  0  0  0
   47.8588   10.5145   20.0035 H   0  0  0  0  0  0  0  0  0  0  0  0
   50.0447   12.9672   15.7753 H   0  0  0  0  0  0  0  0  0  0  0  0
   47.9543   14.1583   16.8494 H   0  0  0  0  0  0  0  0  0  0  0  0
   50.6479   14.6732   17.2788 H   0  0  0  0  0  0  0  0  0  0  0  0
   52.1343   13.7338   17.1605 H   0  0  0  0  0  0  0  0  0  0  0  0
   49.4799    9.4781   18.8682 H   0  0  0  0  0  0  0  0  0  0  0  0
   50.9709   10.2673   19.3540 H   0  0  0  0  0  0  0  0  0  0  0  0
   46.4214   14.3341   18.7078 H   0  0  0  0  0  0  0  0  0  0  0  0
   46.1531   11.8645   19.5278 H   0  0  0  0  0  0  0  0  0  0  0  0
   51.4101    9.3907   17.2256 H   0  0  0  0  0  0  0  0  0  0  0  0
   49.8267    9.7930   16.5842 H   0  0  0  0  0  0  0  0  0  0  0  0
   52.5101   15.0998   19.4916 H   0  0  0  0  0  0  0  0  0  0  0  0
   52.1866   14.9392   21.9315 H   0  0  0  0  0  0  0  0  0  0  0  0
   50.9803   13.9886   23.6000 H   0  0  0  0  0  0  0  0  0  0  0  0
   47.4286   13.0343   21.5898 H   0  0  0  0  0  0  0  0  0  0  0  0
   52.4152   10.4110   15.2637 H   0  0  0  0  0  0  0  0  0  0  0  0
   52.1711   12.1197   14.9372 H   0  0  0  0  0  0  0  0  0  0  0  0
   50.8580   10.9658   14.6110 H   0  0  0  0  0  0  0  0  0  0  0  0
   50.9109   14.9724   19.9824 H   0  0  0  0  0  0  0  0  0  0  0  0
   52.9271   12.9305   18.3660 H   0  0  0  0  0  0  0  0  0  0  0  0
   48.5166   14.9159   20.6789 H   0  0  0  0  0  0  0  0  0  0  0  0
   49.0273   15.7785   18.2323 H   0  0  0  0  0  0  0  0  0  0  0  0
   47.3812   13.7901   18.9848 H   0  0  0  0  0  0  0  0  0  0  0  0
   47.1753   12.7084   20.3375 H   0  0  0  0  0  0  0  0  0  0  0  0
   52.5009   12.3152   20.4606 H   0  0  0  0  0  0  0  0  0  0  0  0
   51.1179   11.2370   20.4988 H   0  0  0  0  0  0  0  0  0  0  0  0
   50.2980   15.5303   16.1896 H   0  0  0  0  0  0  0  0  0  0  0  0
   52.6397   14.7112   17.0555 H   0  0  0  0  0  0  0  0  0  0  0  0
   51.1567   12.3960   22.5827 H   0  0  0  0  0  0  0  0  0  0  0  0
   51.5248   13.9170   21.8446 H   0  0  0  0  0  0  0  0  0  0  0  0
   46.6731   11.0028   18.3126 H   0  0  0  0  0  0  0  0  0  0  0  0
   47.7022    9.4652   16.7139 H   0  0  0  0  0  0  0  0  0  0  0  0
   48.5967   11.5024   21.8487 H   0  0  0  0  0  0  0  0  0  0  0  0
   47.6431   12.8648   22.5026 H   0  0  0  0  0  0  0  0  0  0  0  0
   49.0206   12.2627   23.3888 H   0  0  0  0  0  0  0  0  0  0  0  0
   51.6827   12.6046   15.6457 H   0  0  0  0  0  0  0  0  0  0  0  0
   50.3000    8.0742   14.5484 H   0  0  0  0  0  0  0  0  0  0  0  0
   49.2378    7.8087   15.9370 H   0  0  0  0  0  0  0  0  0  0  0  0
   48.8181    9.0295   14.6729 H   0  0  0  0  0  0  0  0  0  0  0  0
  2  1  1  0
  3  1  2  0
  4  1  1  0
  5  3  1  0
  6  7  1  0
  7  4  2  0
  8  2  2  0
  9 12  2  0
 10  2  1  0
 11 14  2  0
 12 13  1  0
 13 10  1  0
 14 15  1  0
 15 13  2  0
 16 21  2  0
 17  5  1  0
 18  6  1  0
 19  9  1  0
 20 11  1  0
 21  4  1  0
 22 17  1  0
 23 19  1  0
 24 18  1  0
 25 20  1  0
 16  8  1  0
  6  5  2  0
 11  9  1  0
 27 26  1  0
 28 26  1  0
 29 27  2  0
 30 26  1  0
 30 31  1  0
 32 28  1  0
 33 27  1  0
 28 34  1  0
 32 35  1  0
 36 41  1  0
 26 37  1  6
 38 39  1  0
 39 30  1  0
 40 29  1  0
 41 37  1  0
 42 33  2  0
 43 42  1  0
 44 40  1  0
 39 45  1  0
 46 36  1  0
 29 31  1  0
 32 36  1  0
 38 34  2  0
 35 33  1  0
 43 40  2  0
 48 47  1  0
 49 47  1  0
 50 48  2  0
 51 47  1  0
 52 51  1  0
 53 49  1  0
 54 62  1  0
 55 48  1  0
 49 56  1  0
 53 57  1  0
 47 58  1  6
 59 60  1  0
 60 51  1  0
 61 50  1  0
 62 58  1  0
 63 55  2  0
 64 63  1  0
 65 54  1  0
 60 66  1  0
 67 61  1  0
 68 67  1  0
 52 50  1  0
 53 54  1  0
 59 56  2  0
 57 55  1  0
 64 61  2  0
  3 69  1  0
  7 70  1  0
 10 71  1  0
 10 72  1  0
 12 73  1  0
 14 74  1  0
 15 75  1  0
 16 76  1  0
 21 77  1  0
 22 78  1  0
 22 79  1  0
 22 80  1  0
 23 81  1  0
 23 82  1  0
 23 83  1  0
 24 84  1  0
 24 85  1  0
 24 86  1  0
 25 87  1  0
 25 88  1  0
 25 89  1  0
 28 90  1  1
 30 91  1  6
 32 92  1  1
 34 93  1  0
 35 94  1  0
 35 95  1  0
 37 96  1  0
 37 97  1  0
 38 98  1  0
 39 99  1  1
 41100  1  0
 41101  1  0
 42102  1  0
 43103  1  0
 44104  1  0
 45105  1  0
 46106  1  0
 46107  1  0
 46108  1  0
 49109  1  6
 51110  1  6
 53111  1  1
 56112  1  0
 57113  1  0
 57114  1  0
 58115  1  0
 58116  1  0
 59117  1  0
 60118  1  6
 62119  1  0
 62120  1  0
 63121  1  0
 64122  1  0
 65123  1  0
 65124  1  0
 65125  1  0
 66126  1  0
 68127  1  0
 68128  1  0
 68129  1  0
M  END
> <Uni-Dock RESULT> 
ENERGY=   -4.857  LOWER_BOUND=    4.123  UPPER_BOUND=    7.492
INTER + INTRA:          -4.857
INTER:                  -4.857
INTRA:                   0.000
UNBOUND:                 0.000

$$$$

     RDKit          3D

129139  0  0  0  0  0  0  0  0999 V2000
   48.7336    7.0771   19.5739 C   0  0  0  0  0  0  0  0  0  0  0  0
   49.5276    6.0259   19.0432 C   0  0  0  0  0  0  0  0  0  0  0  0
   48.4021    7.2470   20.9429 C   0  0  0  0  0  0  0  0  0  0  0  0
   48.2389    8.0299   18.6576 C   0  0  0  0  0  0  0  0  0  0  0  0
   47.6273    8.3243   21.3905 C   0  0  0  0  0  0  0  0  0  0  0  0
   47.1474    9.2628   20.4637 C   0  0  0  0  0  0  0  0  0  0  0  0
   47.4546    9.1068   19.1090 C   0  0  0  0  0  0  0  0  0  0  0  0
   49.8043    5.9044   17.7147 N   0  0  0  0  0  0  0  0  0  0  0  0
   53.3083    6.5814   21.3820 C   0  0  0  0  0  0  0  0  0  0  0  0
   50.1558    4.9516   19.9101 C   0  0  0  0  0  0  0  0  0  0  0  0
   54.2834    5.6108   21.0871 C   0  0  0  0  0  0  0  0  0  0  0  0
   51.9764    6.3664   21.0021 C   0  0  0  0  0  0  0  0  0  0  0  0
   51.5979    5.2091   20.3027 C   0  0  0  0  0  0  0  0  0  0  0  0
   53.9108    4.4561   20.3937 C   0  0  0  0  0  0  0  0  0  0  0  0
   52.5823    4.2592   20.0049 C   0  0  0  0  0  0  0  0  0  0  0  0
   49.3087    6.8350   16.8812 C   0  0  0  0  0  0  0  0  0  0  0  0
   47.2883    8.5443   22.7027 O   0  0  0  0  0  0  0  0  0  0  0  0
   46.3952   10.2892   20.9784 O   0  0  0  0  0  0  0  0  0  0  0  0
   53.7403    7.6918   22.0667 O   0  0  0  0  0  0  0  0  0  0  0  0
   55.5600    5.8879   21.5087 O   0  0  0  0  0  0  0  0  0  0  0  0
   48.5351    7.8995   17.2979 C   0  0  0  0  0  0  0  0  0  0  0  0
   47.7925    7.6476   23.6822 C   0  0  0  0  0  0  0  0  0  0  0  0
   52.8819    8.8246   22.0695 C   0  0  0  0  0  0  0  0  0  0  0  0
   45.8885   11.2597   20.0740 C   0  0  0  0  0  0  0  0  0  0  0  0
   56.5603    4.9112   21.2606 C   0  0  0  0  0  0  0  0  0  0  0  0
   50.4180    6.7170   21.3200 C   0  0  2  0  0  0  0  0  0  0  0  0
   49.9127    7.9789   20.6854 C   0  0  0  0  0  0  0  0  0  0  0  0
   50.7075    5.6944   20.2148 C   0  0  2  0  0  0  0  0  0  0  0  0
   48.9484    8.5666   21.4761 C   0  0  0  0  0  0  0  0  0  0  0  0
   49.2002    6.4762   22.2374 C   0  0  1  0  0  0  0  0  0  0  0  0
   48.6167    7.7892   22.5583 O   0  0  0  0  0  0  0  0  0  0  0  0
   51.7307    6.3870   19.2463 C   0  0  1  0  0  0  0  0  0  0  0  0
   50.2563    8.4768   19.4394 C   0  0  0  0  0  0  0  0  0  0  0  0
   49.4526    5.1744   19.5581 C   0  0  0  0  0  0  0  0  0  0  0  0
   51.1111    7.6312   18.5313 C   0  0  0  0  0  0  0  0  0  0  0  0
   52.9543    6.8608   19.9499 N   0  0  0  0  0  0  0  0  0  0  0  0
   51.7131    7.0288   22.1113 C   0  0  0  0  0  0  0  0  0  0  0  0
   48.2841    5.1153   20.2147 C   0  0  0  0  0  0  0  0  0  0  0  0
   48.1070    5.5332   21.6460 C   0  0  2  0  0  0  0  0  0  0  0  0
   48.3684    9.7602   21.1070 C   0  0  0  0  0  0  0  0  0  0  0  0
   52.9853    6.5666   21.3810 C   0  0  0  0  0  0  0  0  0  0  0  0
   49.6746    9.6861   19.0497 C   0  0  0  0  0  0  0  0  0  0  0  0
   48.7491   10.3378   19.8914 C   0  0  0  0  0  0  0  0  0  0  0  0
   47.4203   10.3278   21.9010 O   0  0  0  0  0  0  0  0  0  0  0  0
   46.7929    6.0746   21.7774 O   0  0  0  0  0  0  0  0  0  0  0  0
   54.1755    6.4140   19.2856 C   0  0  0  0  0  0  0  0  0  0  0  0
   50.3935    8.3047   20.0336 C   0  0  2  0  0  0  0  0  0  0  0  0
   50.7061    6.9993   20.7038 C   0  0  0  0  0  0  0  0  0  0  0  0
   49.0855    8.1504   19.2397 C   0  0  2  0  0  0  0  0  0  0  0  0
   52.0664    6.7680   20.7183 C   0  0  0  0  0  0  0  0  0  0  0  0
   51.7131    8.4218   19.2419 C   0  0  1  0  0  0  0  0  0  0  0  0
   52.7573    7.7212   20.0069 O   0  0  0  0  0  0  0  0  0  0  0  0
   48.0060    7.7093   20.2971 C   0  0  2  0  0  0  0  0  0  0  0  0
   47.7985    8.7839   21.3082 N   0  0  0  0  0  0  0  0  0  0  0  0
   49.7924    6.0798   21.1806 C   0  0  0  0  0  0  0  0  0  0  0  0
   49.2415    7.2410   18.0445 C   0  0  0  0  0  0  0  0  0  0  0  0
   48.3368    6.2811   20.8623 C   0  0  0  0  0  0  0  0  0  0  0  0
   50.2506    9.3832   21.1358 C   0  0  0  0  0  0  0  0  0  0  0  0
   50.4132    7.1177   17.4018 C   0  0  0  0  0  0  0  0  0  0  0  0
   51.6537    7.8733   17.7832 C   0  0  2  0  0  0  0  0  0  0  0  0
   52.6026    5.6476   21.3277 C   0  0  0  0  0  0  0  0  0  0  0  0
   48.8020    9.8478   21.3191 C   0  0  0  0  0  0  0  0  0  0  0  0
   50.3030    4.9390   21.8001 C   0  0  0  0  0  0  0  0  0  0  0  0
   51.6983    4.7368   21.8931 C   0  0  0  0  0  0  0  0  0  0  0  0
   47.4205    8.3584   22.6468 C   0  0  0  0  0  0  0  0  0  0  0  0
   52.7783    7.0530   17.4686 O   0  0  0  0  0  0  0  0  0  0  0  0
   53.9603    5.5213   21.2911 O   0  0  0  0  0  0  0  0  0  0  0  0
   54.5154    4.3680   21.9082 C   0  0  0  0  0  0  0  0  0  0  0  0
   48.7650    6.5224   21.6622 H   0  0  0  0  0  0  0  0  0  0  0  0
   47.0917    9.8217   18.3771 H   0  0  0  0  0  0  0  0  0  0  0  0
   49.5666    4.7551   20.8115 H   0  0  0  0  0  0  0  0  0  0  0  0
   50.0995    4.0121   19.3427 H   0  0  0  0  0  0  0  0  0  0  0  0
   51.2186    7.0991   21.2510 H   0  0  0  0  0  0  0  0  0  0  0  0
   54.6312    3.6875   20.1354 H   0  0  0  0  0  0  0  0  0  0  0  0
   52.3240    3.3521   19.4620 H   0  0  0  0  0  0  0  0  0  0  0  0
   49.5597    6.7006   15.8330 H   0  0  0  0  0  0  0  0  0  0  0  0
   48.1724    8.6131   16.5652 H   0  0  0  0  0  0  0  0  0  0  0  0
   47.4043    6.6358   23.5276 H   0  0  0  0  0  0  0  0  0  0  0  0
   47.4439    7.9906   24.6611 H   0  0  0  0  0  0  0  0  0  0  0  0
   48.8874    7.6544   23.6989 H   0  0  0  0  0  0  0  0  0  0  0  0
   52.0105    8.6516   22.7091 H   0  0  0  0  0  0  0  0  0  0  0  0
   52.5787    9.1033   21.0546 H   0  0  0  0  0  0  0  0  0  0  0  0
   53.4403    9.6658   22.4917 H   0  0  0  0  0  0  0  0  0  0  0  0
   45.3175   11.9908   20.6542 H   0  0  0  0  0  0  0  0  0  0  0  0
   45.2063   10.8053   19.3484 H   0  0  0  0  0  0  0  0  0  0  0  0
   46.7017   11.7951   19.5732 H   0  0  0  0  0  0  0  0  0  0  0  0
   57.5014    5.2829   21.6771 H   0  0  0  0  0  0  0  0  0  0  0  0
   56.7093    4.7619   20.1862 H   0  0  0  0  0  0  0  0  0  0  0  0
   56.3254    3.9674   21.7634 H   0  0  0  0  0  0  0  0  0  0  0  0
   51.1877    4.8036   20.6450 H   0  0  0  0  0  0  0  0  0  0  0  0
   49.5155    6.0443   23.1956 H   0  0  0  0  0  0  0  0  0  0  0  0
   52.0058    5.6580   18.4711 H   0  0  0  0  0  0  0  0  0  0  0  0
   49.5143    4.8036   18.5377 H   0  0  0  0  0  0  0  0  0  0  0  0
   50.4737    7.2740   17.7121 H   0  0  0  0  0  0  0  0  0  0  0  0
   51.8969    8.2474   18.0768 H   0  0  0  0  0  0  0  0  0  0  0  0
   51.6969    6.5124   23.0790 H   0  0  0  0  0  0  0  0  0  0  0  0
   51.7967    8.1002   22.3370 H   0  0  0  0  0  0  0  0  0  0  0  0
   47.4088    4.7037   19.7172 H   0  0  0  0  0  0  0  0  0  0  0  0
   48.1111    4.6078   22.2353 H   0  0  0  0  0  0  0  0  0  0  0  0
   53.8427    7.0681   21.8469 H   0  0  0  0  0  0  0  0  0  0  0  0
   53.1312    5.4913   21.5505 H   0  0  0  0  0  0  0  0  0  0  0  0
   49.9124   10.1192   18.0809 H   0  0  0  0  0  0  0  0  0  0  0  0
   48.3096   11.2733   19.5584 H   0  0  0  0  0  0  0  0  0  0  0  0
   47.1250   11.1550   21.4885 H   0  0  0  0  0  0  0  0  0  0  0  0
   46.9052    7.0075   22.0514 H   0  0  0  0  0  0  0  0  0  0  0  0
   55.0579    6.8642   19.7536 H   0  0  0  0  0  0  0  0  0  0  0  0
   54.1823    6.7305   18.2366 H   0  0  0  0  0  0  0  0  0  0  0  0
   54.2840    5.3241   19.3200 H   0  0  0  0  0  0  0  0  0  0  0  0
   48.7832    9.1174   18.8128 H   0  0  0  0  0  0  0  0  0  0  0  0
   52.0372    9.4681   19.1800 H   0  0  0  0  0  0  0  0  0  0  0  0
   47.0421    7.6150   19.7785 H   0  0  0  0  0  0  0  0  0  0  0  0
   48.3672    6.7095   17.6773 H   0  0  0  0  0  0  0  0  0  0  0  0
   48.0746    5.5494   20.0852 H   0  0  0  0  0  0  0  0  0  0  0  0
   47.7178    6.0215   21.7260 H   0  0  0  0  0  0  0  0  0  0  0  0
   50.8411   10.2703   20.8751 H   0  0  0  0  0  0  0  0  0  0  0  0
   50.6366    9.0338   22.1022 H   0  0  0  0  0  0  0  0  0  0  0  0
   50.4798    6.4818   16.5222 H   0  0  0  0  0  0  0  0  0  0  0  0
   51.7066    8.7320   17.1016 H   0  0  0  0  0  0  0  0  0  0  0  0
   48.7304   10.4616   22.2261 H   0  0  0  0  0  0  0  0  0  0  0  0
   48.5558   10.5449   20.5067 H   0  0  0  0  0  0  0  0  0  0  0  0
   49.6290    4.1792   22.1896 H   0  0  0  0  0  0  0  0  0  0  0  0
   52.0414    3.8299   22.3812 H   0  0  0  0  0  0  0  0  0  0  0  0
   48.2429    7.8622   23.1731 H   0  0  0  0  0  0  0  0  0  0  0  0
   46.5538    7.6899   22.6160 H   0  0  0  0  0  0  0  0  0  0  0  0
   47.1084    9.2175   23.2519 H   0  0  0  0  0  0  0  0  0  0  0  0
   53.2032    6.8305   18.3207 H   0  0  0  0  0  0  0  0  0  0  0  0
   55.6027    4.4163   21.7926 H   0  0  0  0  0  0  0  0  0  0  0  0
   54.2946    4.3493   22.9806 H   0  0  0  0  0  0  0  0  0  0  0  0
   54.1696    3.4524   21.4171 H   0  0  0  0  0  0  0  0  0  0  0  0
  2  1  1  0
  3  1  2  0
  4  1  1  0
  5  3  1  0
  6  7  1  0
  7  4  2  0
  8  2  2  0
  9 12  2  0
 10  2  1  0
 11 14  2  0
 12 13  1  0
 13 10  1  0
 14 15  1  0
 15 13  2  0
 16 21  2  0
 17  5  1  0
 18  6  1  0
 19  9  1  0
 20 11  1  0
 21  4  1  0
 22 17  1  0
 23 19  1  0
 24 18  1  0
 25 20  1  0
 16  8  1  0
  6  5  2  0
 11  9  1  0
 27 26  1  0
 28 26  1  0
 29 27  2  0
 30 26  1  0
 30 31  1  0
 32 28  1  0
 33 27  1  0
 28 34  1  0
 32 35  1  0
 36 41  1  0
 26 37  1  6
 38 39  1  0
 39 30  1  0
 40 29  1  0
 41 37  1  0
 42 33  2  0
 43 42  1  0
 44 40  1  0
 39 45  1  0
 46 36  1  0
 29 31  1  0
 32 36  1  0
 38 34  2  0
 35 33  1  0
 43 40  2  0
 48 47  1  0
 49 47  1  0
 50 48  2  0
 51 47  1  0
 52 51  1  0
 53 49  1  0
 54 62  1  0
 55 48  1  0
 49 56  1  0
 53 57  1  0
 47 58  1  6
 59 60  1  0
 60 51  1  0
 61 50  1  0
 62 58  1  0
 63 55  2  0
 64 63  1  0
 65 54  1  0
 60 66  1  0
 67 61  1  0
 68 67  1  0
 52 50  1  0
 53 54  1  0
 59 56  2  0
 57 55  1  0
 64 61  2  0
  3 69  1  0
  7 70  1  0
 10 71  1  0
 10 72  1  0
 12 73  1  0
 14 74  1  0
 15 75  1  0
 16 76  1  0
 21 77  1  0
 22 78  1  0
 22 79  1  0
 22 80  1  0
 23 81  1  0
 23 82  1  0
 23 83  1  0
 24 84  1  0
 24 85  1  0
 24 86  1  0
 25 87  1  0
 25 88  1  0
 25 89  1  0
 28 90  1  1
 30 91  1  6
 32 92  1  1
 34 93  1  0
 35 94  1  0
 35 95  1  0
 37 96  1  0
 37 97  1  0
 38 98  1  0
 39 99  1  1
 41100  1  0
 41101  1  0
 42102  1  0
 43103  1  0
 44104  1  0
 45105  1  0
 46106  1  0
 46107  1  0
 46108  1  0
 49109  1  6
 51110  1  6
 53111  1  1
 56112  1  0
 57113  1  0
 57114  1  0
 58115  1  0
 58116  1  0
 59117  1  0
 60118  1  6
 62119  1  0
 62120  1  0
 63121  1  0
 64122  1  0
 65123  1  0
 65124  1  0
 65125  1  0
 66126  1  0
 68127  1  0
 68128  1  0
 68129  1  0
M  END
> <Uni-Dock RESULT> 
ENERGY=   -4.798  LOWER_BOUND=    1.959  UPPER_BOUND=    5.749
INTER + INTRA:          -4.798
INTER:                  -4.798
INTRA:                   0.000
UNBOUND:                 0.000

$$$$
