
     RDKit          3D

129139  0  0  0  0  0  0  0  0999 V2000
   48.8132   12.3645   19.3954 C   0  0  0  0  0  0  0  0  0  0  0  0
   48.4298   11.3331   20.2932 C   0  0  0  0  0  0  0  0  0  0  0  0
   50.1390   12.8294   19.1998 C   0  0  0  0  0  0  0  0  0  0  0  0
   47.7864   12.9732   18.6411 C   0  0  0  0  0  0  0  0  0  0  0  0
   50.4405   13.8383   18.2755 C   0  0  0  0  0  0  0  0  0  0  0  0
   49.4079   14.4133   17.5175 C   0  0  0  0  0  0  0  0  0  0  0  0
   48.0925   13.9834   17.7128 C   0  0  0  0  0  0  0  0  0  0  0  0
   47.1316   10.9705   20.4810 N   0  0  0  0  0  0  0  0  0  0  0  0
   48.6020    6.8732   21.1353 C   0  0  0  0  0  0  0  0  0  0  0  0
   49.4590   10.6013   21.1416 C   0  0  0  0  0  0  0  0  0  0  0  0
   48.3682    6.6317   22.5015 C   0  0  0  0  0  0  0  0  0  0  0  0
   48.9641    8.1558   20.7074 C   0  0  0  0  0  0  0  0  0  0  0  0
   49.0621    9.2182   21.6209 C   0  0  0  0  0  0  0  0  0  0  0  0
   48.4532    7.6930   23.4094 C   0  0  0  0  0  0  0  0  0  0  0  0
   48.7932    8.9765   22.9715 C   0  0  0  0  0  0  0  0  0  0  0  0
   46.1869   11.5833   19.7479 C   0  0  0  0  0  0  0  0  0  0  0  0
   51.7027   14.3240   18.0378 O   0  0  0  0  0  0  0  0  0  0  0  0
   49.7812   15.3909   16.6287 O   0  0  0  0  0  0  0  0  0  0  0  0
   48.4971    5.7941   20.2910 O   0  0  0  0  0  0  0  0  0  0  0  0
   48.0444    5.3410   22.8416 O   0  0  0  0  0  0  0  0  0  0  0  0
   46.4614   12.5697   18.8241 C   0  0  0  0  0  0  0  0  0  0  0  0
   52.7800   13.7807   18.7861 C   0  0  0  0  0  0  0  0  0  0  0  0
   48.1783    6.0900   18.9371 C   0  0  0  0  0  0  0  0  0  0  0  0
   48.7962   15.8753   15.7275 C   0  0  0  0  0  0  0  0  0  0  0  0
   47.9599    5.0314   24.2250 C   0  0  0  0  0  0  0  0  0  0  0  0
   48.8785   10.8065   20.9474 C   0  0  2  0  0  0  0  0  0  0  0  0
   49.5185   10.9393   19.6043 C   0  0  0  0  0  0  0  0  0  0  0  0
   47.3603   10.6649   20.7718 C   0  0  2  0  0  0  0  0  0  0  0  0
   50.5717   11.8261   19.6519 C   0  0  0  0  0  0  0  0  0  0  0  0
   49.4120   12.1213   21.5511 C   0  0  1  0  0  0  0  0  0  0  0  0
   50.6885   12.4306   20.8786 O   0  0  0  0  0  0  0  0  0  0  0  0
   47.1370    9.4128   19.8597 C   0  0  1  0  0  0  0  0  0  0  0  0
   49.0892   10.3444   18.4313 C   0  0  0  0  0  0  0  0  0  0  0  0
   46.7156   11.9383   20.2823 C   0  0  0  0  0  0  0  0  0  0  0  0
   47.7890    9.5835   18.4406 C   0  0  0  0  0  0  0  0  0  0  0  0
   47.5882    8.2266   20.6382 N   0  0  0  0  0  0  0  0  0  0  0  0
   49.4309    9.5572   21.6628 C   0  0  0  0  0  0  0  0  0  0  0  0
   47.2232   13.1428   20.5858 C   0  0  0  0  0  0  0  0  0  0  0  0
   48.4458   13.3395   21.4357 C   0  0  2  0  0  0  0  0  0  0  0  0
   51.3253   12.0746   18.5267 C   0  0  0  0  0  0  0  0  0  0  0  0
   49.0188    8.2516   20.9665 C   0  0  0  0  0  0  0  0  0  0  0  0
   49.8428   10.5891   17.2811 C   0  0  0  0  0  0  0  0  0  0  0  0
   50.9700   11.4372   17.3331 C   0  0  0  0  0  0  0  0  0  0  0  0
   52.3652   12.9499   18.5869 O   0  0  0  0  0  0  0  0  0  0  0  0
   49.1100   14.5133   20.9681 O   0  0  0  0  0  0  0  0  0  0  0  0
   47.2074    6.9568   20.0257 C   0  0  0  0  0  0  0  0  0  0  0  0
   48.2931   11.5308   20.2816 C   0  0  2  0  0  0  0  0  0  0  0  0
   48.5396   10.0841   19.9636 C   0  0  0  0  0  0  0  0  0  0  0  0
   49.5845   12.3086   19.9956 C   0  0  2  0  0  0  0  0  0  0  0  0
   47.8818    9.2683   20.8622 C   0  0  0  0  0  0  0  0  0  0  0  0
   47.8726   11.3276   21.7548 C   0  0  1  0  0  0  0  0  0  0  0  0
   47.2807    9.9886   21.8644 O   0  0  0  0  0  0  0  0  0  0  0  0
   49.9253   12.0391   18.4874 C   0  0  2  0  0  0  0  0  0  0  0  0
   48.8083   12.3972   17.5719 N   0  0  0  0  0  0  0  0  0  0  0  0
   49.3738    9.5839   18.9790 C   0  0  0  0  0  0  0  0  0  0  0  0
   50.6888   11.9688   20.9696 C   0  0  0  0  0  0  0  0  0  0  0  0
   50.2606   10.5363   18.2219 C   0  0  0  0  0  0  0  0  0  0  0  0
   47.1371   12.0603   19.3966 C   0  0  0  0  0  0  0  0  0  0  0  0
   50.4213   11.6060   22.2340 C   0  0  0  0  0  0  0  0  0  0  0  0
   49.0202   11.5595   22.7891 C   0  0  2  0  0  0  0  0  0  0  0  0
   47.9103    7.8898   20.7386 C   0  0  0  0  0  0  0  0  0  0  0  0
   47.6275   12.9430   18.2380 C   0  0  0  0  0  0  0  0  0  0  0  0
   49.4327    8.1972   18.8398 C   0  0  0  0  0  0  0  0  0  0  0  0
   48.6876    7.3586   19.6980 C   0  0  0  0  0  0  0  0  0  0  0  0
   49.2481   13.2530   16.4741 C   0  0  0  0  0  0  0  0  0  0  0  0
   48.9511   10.6373   23.8721 O   0  0  0  0  0  0  0  0  0  0  0  0
   47.1960    7.1737   21.6550 O   0  0  0  0  0  0  0  0  0  0  0  0
   47.1969    5.7612   21.5135 C   0  0  0  0  0  0  0  0  0  0  0  0
   50.9382   12.3933   19.7880 H   0  0  0  0  0  0  0  0  0  0  0  0
   47.2788   14.4313   17.1503 H   0  0  0  0  0  0  0  0  0  0  0  0
   49.7051   11.2394   21.9998 H   0  0  0  0  0  0  0  0  0  0  0  0
   50.3873   10.4643   20.5749 H   0  0  0  0  0  0  0  0  0  0  0  0
   49.1774    8.3524   19.6615 H   0  0  0  0  0  0  0  0  0  0  0  0
   48.2501    7.5567   24.4660 H   0  0  0  0  0  0  0  0  0  0  0  0
   48.8417    9.7869   23.6949 H   0  0  0  0  0  0  0  0  0  0  0  0
   45.1700   11.2476   19.9290 H   0  0  0  0  0  0  0  0  0  0  0  0
   45.6464   13.0166   18.2645 H   0  0  0  0  0  0  0  0  0  0  0  0
   53.6972   14.2836   18.4650 H   0  0  0  0  0  0  0  0  0  0  0  0
   52.9009   12.7109   18.5855 H   0  0  0  0  0  0  0  0  0  0  0  0
   52.6535   13.9724   19.8568 H   0  0  0  0  0  0  0  0  0  0  0  0
   47.3414    6.7936   18.8613 H   0  0  0  0  0  0  0  0  0  0  0  0
   49.0581    6.4661   18.4051 H   0  0  0  0  0  0  0  0  0  0  0  0
   47.8727    5.1571   18.4542 H   0  0  0  0  0  0  0  0  0  0  0  0
   48.3764   15.0644   15.1237 H   0  0  0  0  0  0  0  0  0  0  0  0
   49.2842   16.5786   15.0460 H   0  0  0  0  0  0  0  0  0  0  0  0
   48.0104   16.4203   16.2605 H   0  0  0  0  0  0  0  0  0  0  0  0
   47.8020    3.9527   24.3159 H   0  0  0  0  0  0  0  0  0  0  0  0
   48.8913    5.2750   24.7468 H   0  0  0  0  0  0  0  0  0  0  0  0
   47.1036    5.5336   24.6869 H   0  0  0  0  0  0  0  0  0  0  0  0
   46.8959   10.4609   21.7487 H   0  0  0  0  0  0  0  0  0  0  0  0
   49.6549   11.9877   22.6129 H   0  0  0  0  0  0  0  0  0  0  0  0
   46.0545    9.2997   19.7091 H   0  0  0  0  0  0  0  0  0  0  0  0
   45.7942   11.8698   19.7100 H   0  0  0  0  0  0  0  0  0  0  0  0
   47.0807   10.1502   17.8210 H   0  0  0  0  0  0  0  0  0  0  0  0
   47.9251    8.6167   17.9463 H   0  0  0  0  0  0  0  0  0  0  0  0
   49.0499    9.5432   22.6929 H   0  0  0  0  0  0  0  0  0  0  0  0
   50.5258    9.5883   21.7364 H   0  0  0  0  0  0  0  0  0  0  0  0
   46.7123   14.0420   20.2490 H   0  0  0  0  0  0  0  0  0  0  0  0
   48.0825   13.5767   22.4432 H   0  0  0  0  0  0  0  0  0  0  0  0
   49.2525    7.4233   21.6466 H   0  0  0  0  0  0  0  0  0  0  0  0
   49.6311    8.0936   20.0707 H   0  0  0  0  0  0  0  0  0  0  0  0
   49.5500   10.1478   16.3308 H   0  0  0  0  0  0  0  0  0  0  0  0
   51.5303   11.6157   16.4196 H   0  0  0  0  0  0  0  0  0  0  0  0
   52.7852   12.9968   17.7132 H   0  0  0  0  0  0  0  0  0  0  0  0
   49.9965   14.2259   20.6689 H   0  0  0  0  0  0  0  0  0  0  0  0
   46.1317    6.9314   19.8212 H   0  0  0  0  0  0  0  0  0  0  0  0
   47.7435    6.7562   19.0933 H   0  0  0  0  0  0  0  0  0  0  0  0
   47.4123    6.1293   20.7139 H   0  0  0  0  0  0  0  0  0  0  0  0
   49.4109   13.3865   20.1248 H   0  0  0  0  0  0  0  0  0  0  0  0
   47.0661   12.0214   22.0249 H   0  0  0  0  0  0  0  0  0  0  0  0
   50.8163   12.6306   18.2340 H   0  0  0  0  0  0  0  0  0  0  0  0
   51.7199   12.0489   20.6358 H   0  0  0  0  0  0  0  0  0  0  0  0
   50.2190   10.3131   17.1484 H   0  0  0  0  0  0  0  0  0  0  0  0
   51.2947   10.3541   18.5418 H   0  0  0  0  0  0  0  0  0  0  0  0
   46.5335   11.2373   18.9918 H   0  0  0  0  0  0  0  0  0  0  0  0
   46.4538   12.6750   19.9954 H   0  0  0  0  0  0  0  0  0  0  0  0
   51.2498   11.4007   22.9055 H   0  0  0  0  0  0  0  0  0  0  0  0
   48.8544   12.5502   23.2342 H   0  0  0  0  0  0  0  0  0  0  0  0
   46.8056   13.0434   17.5181 H   0  0  0  0  0  0  0  0  0  0  0  0
   47.8312   13.9550   18.6132 H   0  0  0  0  0  0  0  0  0  0  0  0
   50.0711    7.7503   18.0817 H   0  0  0  0  0  0  0  0  0  0  0  0
   48.7677    6.2869   19.5447 H   0  0  0  0  0  0  0  0  0  0  0  0
   48.4391   13.3979   15.7495 H   0  0  0  0  0  0  0  0  0  0  0  0
   49.5749   14.2365   16.8292 H   0  0  0  0  0  0  0  0  0  0  0  0
   50.0767   12.7880   15.9285 H   0  0  0  0  0  0  0  0  0  0  0  0
   49.7653   10.7055   24.3924 H   0  0  0  0  0  0  0  0  0  0  0  0
   46.7623    5.4597   20.5544 H   0  0  0  0  0  0  0  0  0  0  0  0
   46.5700    5.3449   22.3080 H   0  0  0  0  0  0  0  0  0  0  0  0
   48.2052    5.3517   21.6367 H   0  0  0  0  0  0  0  0  0  0  0  0
  2  1  1  0
  3  1  2  0
  4  1  1  0
  5  3  1  0
  6  7  1  0
  7  4  2  0
  8  2  2  0
  9 12  2  0
 10  2  1  0
 11 14  2  0
 12 13  1  0
 13 10  1  0
 14 15  1  0
 15 13  2  0
 16 21  2  0
 17  5  1  0
 18  6  1  0
 19  9  1  0
 20 11  1  0
 21  4  1  0
 22 17  1  0
 23 19  1  0
 24 18  1  0
 25 20  1  0
 16  8  1  0
  6  5  2  0
 11  9  1  0
 27 26  1  0
 28 26  1  0
 29 27  2  0
 30 26  1  0
 30 31  1  0
 32 28  1  0
 33 27  1  0
 28 34  1  0
 32 35  1  0
 36 41  1  0
 26 37  1  6
 38 39  1  0
 39 30  1  0
 40 29  1  0
 41 37  1  0
 42 33  2  0
 43 42  1  0
 44 40  1  0
 39 45  1  0
 46 36  1  0
 29 31  1  0
 32 36  1  0
 38 34  2  0
 35 33  1  0
 43 40  2  0
 48 47  1  0
 49 47  1  0
 50 48  2  0
 51 47  1  0
 52 51  1  0
 53 49  1  0
 54 62  1  0
 55 48  1  0
 49 56  1  0
 53 57  1  0
 47 58  1  1
 59 60  1  0
 60 51  1  0
 61 50  1  0
 62 58  1  0
 63 55  2  0
 64 63  1  0
 65 54  1  0
 60 66  1  0
 67 61  1  0
 68 67  1  0
 52 50  1  0
 53 54  1  0
 59 56  2  0
 57 55  1  0
 64 61  2  0
  3 69  1  0
  7 70  1  0
 10 71  1  0
 10 72  1  0
 12 73  1  0
 14 74  1  0
 15 75  1  0
 16 76  1  0
 21 77  1  0
 22 78  1  0
 22 79  1  0
 22 80  1  0
 23 81  1  0
 23 82  1  0
 23 83  1  0
 24 84  1  0
 24 85  1  0
 24 86  1  0
 25 87  1  0
 25 88  1  0
 25 89  1  0
 28 90  1  1
 30 91  1  6
 32 92  1  1
 34 93  1  0
 35 94  1  0
 35 95  1  0
 37 96  1  0
 37 97  1  0
 38 98  1  0
 39 99  1  1
 41100  1  0
 41101  1  0
 42102  1  0
 43103  1  0
 44104  1  0
 45105  1  0
 46106  1  0
 46107  1  0
 46108  1  0
 49109  1  1
 51110  1  1
 53111  1  6
 56112  1  0
 57113  1  0
 57114  1  0
 58115  1  0
 58116  1  0
 59117  1  0
 60118  1  1
 62119  1  0
 62120  1  0
 63121  1  0
 64122  1  0
 65123  1  0
 65124  1  0
 65125  1  0
 66126  1  0
 68127  1  0
 68128  1  0
 68129  1  0
M  END
> <Uni-Dock RESULT> 
ENERGY=   -5.878  LOWER_BOUND=    0.000  UPPER_BOUND=    0.000
INTER + INTRA:          -5.878
INTER:                  -5.878
INTRA:                   0.000
UNBOUND:                 0.000

$$$$

     RDKit          3D

129139  0  0  0  0  0  0  0  0999 V2000
   49.7650   11.3010   18.6551 C   0  0  0  0  0  0  0  0  0  0  0  0
   49.8703    9.9160   18.3595 C   0  0  0  0  0  0  0  0  0  0  0  0
   48.8097   12.1879   18.0955 C   0  0  0  0  0  0  0  0  0  0  0  0
   50.6903   11.8320   19.5803 C   0  0  0  0  0  0  0  0  0  0  0  0
   48.7551   13.5405   18.4567 C   0  0  0  0  0  0  0  0  0  0  0  0
   49.6687   14.0429   19.3971 C   0  0  0  0  0  0  0  0  0  0  0  0
   50.6312   13.1890   19.9424 C   0  0  0  0  0  0  0  0  0  0  0  0
   50.8473    9.1272   18.8842 N   0  0  0  0  0  0  0  0  0  0  0  0
   47.9140    5.8454   18.8401 C   0  0  0  0  0  0  0  0  0  0  0  0
   48.9135    9.2405   17.3886 C   0  0  0  0  0  0  0  0  0  0  0  0
   48.3925    4.9618   17.8552 C   0  0  0  0  0  0  0  0  0  0  0  0
   48.0775    7.2256   18.6753 C   0  0  0  0  0  0  0  0  0  0  0  0
   48.7476    7.7421   17.5541 C   0  0  0  0  0  0  0  0  0  0  0  0
   49.0714    5.4757   16.7450 C   0  0  0  0  0  0  0  0  0  0  0  0
   49.2511    6.8545   16.5983 C   0  0  0  0  0  0  0  0  0  0  0  0
   51.7117    9.6774   19.7535 C   0  0  0  0  0  0  0  0  0  0  0  0
   47.8507   14.4439   17.9553 O   0  0  0  0  0  0  0  0  0  0  0  0
   49.5496   15.3757   19.7050 O   0  0  0  0  0  0  0  0  0  0  0  0
   47.2618    5.2819   19.9105 O   0  0  0  0  0  0  0  0  0  0  0  0
   48.1677    3.6255   18.0797 O   0  0  0  0  0  0  0  0  0  0  0  0
   51.6695   11.0027   20.1327 C   0  0  0  0  0  0  0  0  0  0  0  0
   46.9115   13.9862   16.9939 C   0  0  0  0  0  0  0  0  0  0  0  0
   47.2759    6.0353   21.1164 C   0  0  0  0  0  0  0  0  0  0  0  0
   50.3402   15.8804   20.7714 C   0  0  0  0  0  0  0  0  0  0  0  0
   48.4944    2.7231   17.0330 C   0  0  0  0  0  0  0  0  0  0  0  0
   49.4395    9.3205   17.7543 C   0  0  2  0  0  0  0  0  0  0  0  0
   48.5765   10.2276   18.5689 C   0  0  0  0  0  0  0  0  0  0  0  0
   50.5984    8.8114   18.6226 C   0  0  2  0  0  0  0  0  0  0  0  0
   48.1145   11.2767   17.8048 C   0  0  0  0  0  0  0  0  0  0  0  0
   49.7711   10.3213   16.6291 C   0  0  1  0  0  0  0  0  0  0  0  0
   48.6482   11.2744   16.5402 O   0  0  0  0  0  0  0  0  0  0  0  0
   49.9464    8.0963   19.8526 C   0  0  1  0  0  0  0  0  0  0  0  0
   48.3251   10.1176   19.9250 C   0  0  0  0  0  0  0  0  0  0  0  0
   51.5852    9.9010   18.9628 C   0  0  0  0  0  0  0  0  0  0  0  0
   49.0690    9.0728   20.7155 C   0  0  0  0  0  0  0  0  0  0  0  0
   49.2454    6.8916   19.3291 N   0  0  0  0  0  0  0  0  0  0  0  0
   48.6063    8.1221   17.2570 C   0  0  0  0  0  0  0  0  0  0  0  0
   51.8012   10.9348   18.1351 C   0  0  0  0  0  0  0  0  0  0  0  0
   51.1102   11.0987   16.8117 C   0  0  2  0  0  0  0  0  0  0  0  0
   47.2722   12.2191   18.3509 C   0  0  0  0  0  0  0  0  0  0  0  0
   48.1504    7.2077   18.4038 C   0  0  0  0  0  0  0  0  0  0  0  0
   47.4739   11.0679   20.4933 C   0  0  0  0  0  0  0  0  0  0  0  0
   46.9332   12.1053   19.7033 C   0  0  0  0  0  0  0  0  0  0  0  0
   46.8196   13.2487   17.5852 O   0  0  0  0  0  0  0  0  0  0  0  0
   50.9585   12.4984   16.5765 O   0  0  0  0  0  0  0  0  0  0  0  0
   48.8038    5.9797   20.3806 C   0  0  0  0  0  0  0  0  0  0  0  0
   50.0729   10.0452   18.3741 C   0  0  2  0  0  0  0  0  0  0  0  0
   49.1080    9.0469   18.9460 C   0  0  0  0  0  0  0  0  0  0  0  0
   49.2645   11.2246   17.8173 C   0  0  2  0  0  0  0  0  0  0  0  0
   49.5432    7.7581   18.7109 C   0  0  0  0  0  0  0  0  0  0  0  0
   50.7565    9.0887   17.3712 C   0  0  1  0  0  0  0  0  0  0  0  0
   50.6683    7.7318   17.9247 O   0  0  0  0  0  0  0  0  0  0  0  0
   48.4200   11.7749   19.0203 C   0  0  2  0  0  0  0  0  0  0  0  0
   49.2591   12.1392   20.1939 N   0  0  0  0  0  0  0  0  0  0  0  0
   47.8936    9.3222   19.5502 C   0  0  0  0  0  0  0  0  0  0  0  0
   48.4614   10.8459   16.5946 C   0  0  0  0  0  0  0  0  0  0  0  0
   47.3698   10.7334   19.5240 C   0  0  0  0  0  0  0  0  0  0  0  0
   51.0324   10.5279   19.4904 C   0  0  0  0  0  0  0  0  0  0  0  0
   48.8830    9.8953   15.7457 C   0  0  0  0  0  0  0  0  0  0  0  0
   50.1977    9.1769   15.9149 C   0  0  2  0  0  0  0  0  0  0  0  0
   48.8488    6.6632   19.1959 C   0  0  0  0  0  0  0  0  0  0  0  0
   50.6937   11.9372   20.0017 C   0  0  0  0  0  0  0  0  0  0  0  0
   47.1654    8.2367   20.0372 C   0  0  0  0  0  0  0  0  0  0  0  0
   47.6518    6.9198   19.8820 C   0  0  0  0  0  0  0  0  0  0  0  0
   48.9679   13.4831   20.6840 C   0  0  0  0  0  0  0  0  0  0  0  0
   50.1428    7.8981   15.2906 O   0  0  0  0  0  0  0  0  0  0  0  0
   49.3824    5.4328   18.9426 O   0  0  0  0  0  0  0  0  0  0  0  0
   48.6904    4.3088   19.4649 C   0  0  0  0  0  0  0  0  0  0  0  0
   48.1073   11.8058   17.3638 H   0  0  0  0  0  0  0  0  0  0  0  0
   51.3588   13.5650   20.6554 H   0  0  0  0  0  0  0  0  0  0  0  0
   49.2479    9.4706   16.3691 H   0  0  0  0  0  0  0  0  0  0  0  0
   47.9078    9.6640   17.4930 H   0  0  0  0  0  0  0  0  0  0  0  0
   47.6878    7.9225   19.4105 H   0  0  0  0  0  0  0  0  0  0  0  0
   49.4834    4.8279   15.9790 H   0  0  0  0  0  0  0  0  0  0  0  0
   49.7919    7.2284   15.7323 H   0  0  0  0  0  0  0  0  0  0  0  0
   52.4630    9.0011   20.1504 H   0  0  0  0  0  0  0  0  0  0  0  0
   52.3985   11.3762   20.8442 H   0  0  0  0  0  0  0  0  0  0  0  0
   46.2806   14.8349   16.7127 H   0  0  0  0  0  0  0  0  0  0  0  0
   46.2594   13.2136   17.4150 H   0  0  0  0  0  0  0  0  0  0  0  0
   47.4143   13.6315   16.0882 H   0  0  0  0  0  0  0  0  0  0  0  0
   48.2808    6.4024   21.3544 H   0  0  0  0  0  0  0  0  0  0  0  0
   46.5573    6.8596   21.0668 H   0  0  0  0  0  0  0  0  0  0  0  0
   46.9637    5.3719   21.9285 H   0  0  0  0  0  0  0  0  0  0  0  0
   50.1452   15.3382   21.7022 H   0  0  0  0  0  0  0  0  0  0  0  0
   50.0582   16.9256   20.9303 H   0  0  0  0  0  0  0  0  0  0  0  0
   51.4045   15.8588   20.5156 H   0  0  0  0  0  0  0  0  0  0  0  0
   48.1563    1.7272   17.3341 H   0  0  0  0  0  0  0  0  0  0  0  0
   47.9749    2.9827   16.1046 H   0  0  0  0  0  0  0  0  0  0  0  0
   49.5777    2.6755   16.8811 H   0  0  0  0  0  0  0  0  0  0  0  0
   51.1756    8.0616   18.0602 H   0  0  0  0  0  0  0  0  0  0  0  0
   49.8113    9.8110   15.6584 H   0  0  0  0  0  0  0  0  0  0  0  0
   50.7598    7.7344   20.4967 H   0  0  0  0  0  0  0  0  0  0  0  0
   52.1625    9.8140   19.8796 H   0  0  0  0  0  0  0  0  0  0  0  0
   49.7463    9.6067   21.3959 H   0  0  0  0  0  0  0  0  0  0  0  0
   48.3670    8.5223   21.3493 H   0  0  0  0  0  0  0  0  0  0  0  0
   49.2164    7.5340   16.5581 H   0  0  0  0  0  0  0  0  0  0  0  0
   47.7225    8.4531   16.6961 H   0  0  0  0  0  0  0  0  0  0  0  0
   52.5474   11.6830   18.3927 H   0  0  0  0  0  0  0  0  0  0  0  0
   51.8145   10.7373   16.0525 H   0  0  0  0  0  0  0  0  0  0  0  0
   47.7684    6.2806   17.9589 H   0  0  0  0  0  0  0  0  0  0  0  0
   47.3055    7.6626   18.9345 H   0  0  0  0  0  0  0  0  0  0  0  0
   47.2428   11.0299   21.5557 H   0  0  0  0  0  0  0  0  0  0  0  0
   46.2820   12.8349   20.1764 H   0  0  0  0  0  0  0  0  0  0  0  0
   46.2371   13.8067   18.1247 H   0  0  0  0  0  0  0  0  0  0  0  0
   49.9957   12.6635   16.5156 H   0  0  0  0  0  0  0  0  0  0  0  0
   49.6363    5.7176   21.0423 H   0  0  0  0  0  0  0  0  0  0  0  0
   47.9928    6.3917   20.9886 H   0  0  0  0  0  0  0  0  0  0  0  0
   48.4487    5.0407   19.9415 H   0  0  0  0  0  0  0  0  0  0  0  0
   49.9441   12.0196   17.4781 H   0  0  0  0  0  0  0  0  0  0  0  0
   51.8311    9.3028   17.3051 H   0  0  0  0  0  0  0  0  0  0  0  0
   47.8714   12.6598   18.6681 H   0  0  0  0  0  0  0  0  0  0  0  0
   47.5365   11.3798   16.3936 H   0  0  0  0  0  0  0  0  0  0  0  0
   46.9927   11.0110   20.5162 H   0  0  0  0  0  0  0  0  0  0  0  0
   46.5097   10.7567   18.8422 H   0  0  0  0  0  0  0  0  0  0  0  0
   51.0436    9.8302   20.3381 H   0  0  0  0  0  0  0  0  0  0  0  0
   52.0617   10.5672   19.1131 H   0  0  0  0  0  0  0  0  0  0  0  0
   48.2862    9.6792   14.8645 H   0  0  0  0  0  0  0  0  0  0  0  0
   50.9214    9.7602   15.3293 H   0  0  0  0  0  0  0  0  0  0  0  0
   51.2227   12.0887   20.9509 H   0  0  0  0  0  0  0  0  0  0  0  0
   51.0969   12.6835   19.3039 H   0  0  0  0  0  0  0  0  0  0  0  0
   46.2052    8.3955   20.5218 H   0  0  0  0  0  0  0  0  0  0  0  0
   47.0467    6.1120   20.2816 H   0  0  0  0  0  0  0  0  0  0  0  0
   49.5052   13.6781   21.6187 H   0  0  0  0  0  0  0  0  0  0  0  0
   49.2488   14.2524   19.9563 H   0  0  0  0  0  0  0  0  0  0  0  0
   47.9009   13.5907   20.9085 H   0  0  0  0  0  0  0  0  0  0  0  0
   49.6405    7.9748   14.4660 H   0  0  0  0  0  0  0  0  0  0  0  0
   48.6401    4.3485   20.5583 H   0  0  0  0  0  0  0  0  0  0  0  0
   49.2537    3.4118   19.1903 H   0  0  0  0  0  0  0  0  0  0  0  0
   47.6907    4.2207   19.0262 H   0  0  0  0  0  0  0  0  0  0  0  0
  2  1  1  0
  3  1  2  0
  4  1  1  0
  5  3  1  0
  6  7  1  0
  7  4  2  0
  8  2  2  0
  9 12  2  0
 10  2  1  0
 11 14  2  0
 12 13  1  0
 13 10  1  0
 14 15  1  0
 15 13  2  0
 16 21  2  0
 17  5  1  0
 18  6  1  0
 19  9  1  0
 20 11  1  0
 21  4  1  0
 22 17  1  0
 23 19  1  0
 24 18  1  0
 25 20  1  0
 16  8  1  0
  6  5  2  0
 11  9  1  0
 27 26  1  0
 28 26  1  0
 29 27  2  0
 30 26  1  0
 30 31  1  0
 32 28  1  0
 33 27  1  0
 28 34  1  0
 32 35  1  0
 36 41  1  0
 26 37  1  6
 38 39  1  0
 39 30  1  0
 40 29  1  0
 41 37  1  0
 42 33  2  0
 43 42  1  0
 44 40  1  0
 39 45  1  0
 46 36  1  0
 29 31  1  0
 32 36  1  0
 38 34  2  0
 35 33  1  0
 43 40  2  0
 48 47  1  0
 49 47  1  0
 50 48  2  0
 51 47  1  0
 52 51  1  0
 53 49  1  0
 54 62  1  0
 55 48  1  0
 49 56  1  0
 53 57  1  0
 47 58  1  1
 59 60  1  0
 60 51  1  0
 61 50  1  0
 62 58  1  0
 63 55  2  0
 64 63  1  0
 65 54  1  0
 60 66  1  0
 67 61  1  0
 68 67  1  0
 52 50  1  0
 53 54  1  0
 59 56  2  0
 57 55  1  0
 64 61  2  0
  3 69  1  0
  7 70  1  0
 10 71  1  0
 10 72  1  0
 12 73  1  0
 14 74  1  0
 15 75  1  0
 16 76  1  0
 21 77  1  0
 22 78  1  0
 22 79  1  0
 22 80  1  0
 23 81  1  0
 23 82  1  0
 23 83  1  0
 24 84  1  0
 24 85  1  0
 24 86  1  0
 25 87  1  0
 25 88  1  0
 25 89  1  0
 28 90  1  1
 30 91  1  6
 32 92  1  1
 34 93  1  0
 35 94  1  0
 35 95  1  0
 37 96  1  0
 37 97  1  0
 38 98  1  0
 39 99  1  1
 41100  1  0
 41101  1  0
 42102  1  0
 43103  1  0
 44104  1  0
 45105  1  0
 46106  1  0
 46107  1  0
 46108  1  0
 49109  1  1
 51110  1  1
 53111  1  6
 56112  1  0
 57113  1  0
 57114  1  0
 58115  1  0
 58116  1  0
 59117  1  0
 60118  1  1
 62119  1  0
 62120  1  0
 63121  1  0
 64122  1  0
 65123  1  0
 65124  1  0
 65125  1  0
 66126  1  0
 68127  1  0
 68128  1  0
 68129  1  0
M  END
> <Uni-Dock RESULT> 
ENERGY=   -5.799  LOWER_BOUND=    1.897  UPPER_BOUND=    4.285
INTER + INTRA:          -5.799
INTER:                  -5.799
INTRA:                   0.000
UNBOUND:                 0.000

$$$$

     RDKit          3D

129139  0  0  0  0  0  0  0  0999 V2000
   51.1801    9.6235   13.1547 C   0  0  0  0  0  0  0  0  0  0  0  0
   49.7786    9.8492   13.1958 C   0  0  0  0  0  0  0  0  0  0  0  0
   51.8378    8.7100   12.2915 C   0  0  0  0  0  0  0  0  0  0  0  0
   51.9770   10.3708   14.0494 C   0  0  0  0  0  0  0  0  0  0  0  0
   53.2309    8.5609   12.2949 C   0  0  0  0  0  0  0  0  0  0  0  0
   54.0071    9.3316   13.1752 C   0  0  0  0  0  0  0  0  0  0  0  0
   53.3746   10.2205   14.0486 C   0  0  0  0  0  0  0  0  0  0  0  0
   49.1991   10.6971   14.0887 N   0  0  0  0  0  0  0  0  0  0  0  0
   46.2188   11.5865   10.9736 C   0  0  0  0  0  0  0  0  0  0  0  0
   48.8315    9.1082   12.2640 C   0  0  0  0  0  0  0  0  0  0  0  0
   45.0253   11.0222   11.4600 C   0  0  0  0  0  0  0  0  0  0  0  0
   47.4417   10.9554   11.2293 C   0  0  0  0  0  0  0  0  0  0  0  0
   47.4987    9.7818   11.9988 C   0  0  0  0  0  0  0  0  0  0  0  0
   45.0836    9.8604   12.2375 C   0  0  0  0  0  0  0  0  0  0  0  0
   46.3111    9.2480   12.5081 C   0  0  0  0  0  0  0  0  0  0  0  0
   49.9959   11.3805   14.9274 C   0  0  0  0  0  0  0  0  0  0  0  0
   53.9234    7.6998   11.4796 O   0  0  0  0  0  0  0  0  0  0  0  0
   55.3647    9.1347   13.1165 O   0  0  0  0  0  0  0  0  0  0  0  0
   46.0991   12.7310   10.2223 O   0  0  0  0  0  0  0  0  0  0  0  0
   43.8669   11.6883   11.1422 O   0  0  0  0  0  0  0  0  0  0  0  0
   51.3696   11.2590   14.9404 C   0  0  0  0  0  0  0  0  0  0  0  0
   53.1822    6.8917   10.5777 C   0  0  0  0  0  0  0  0  0  0  0  0
   47.2344   13.5871   10.2047 C   0  0  0  0  0  0  0  0  0  0  0  0
   56.1923   10.0120   13.8666 C   0  0  0  0  0  0  0  0  0  0  0  0
   42.6386   11.0609   11.4803 C   0  0  0  0  0  0  0  0  0  0  0  0
   49.0200    9.4627   12.7695 C   0  0  2  0  0  0  0  0  0  0  0  0
   50.1871    9.8291   11.9122 C   0  0  0  0  0  0  0  0  0  0  0  0
   48.8187   10.5457   13.8385 C   0  0  2  0  0  0  0  0  0  0  0  0
   50.9064    8.7072   11.5630 C   0  0  0  0  0  0  0  0  0  0  0  0
   49.5386    8.0859   13.2310 C   0  0  1  0  0  0  0  0  0  0  0  0
   50.4327    7.5736   12.1748 O   0  0  0  0  0  0  0  0  0  0  0  0
   48.6149   11.8928   13.0682 C   0  0  1  0  0  0  0  0  0  0  0  0
   50.5797   11.1106   11.5691 C   0  0  0  0  0  0  0  0  0  0  0  0
   49.9247   10.5546   14.8650 C   0  0  0  0  0  0  0  0  0  0  0  0
   49.8645   12.2782   12.1976 C   0  0  0  0  0  0  0  0  0  0  0  0
   47.3264   11.7771   12.3313 N   0  0  0  0  0  0  0  0  0  0  0  0
   47.7512    9.3586   11.8995 C   0  0  0  0  0  0  0  0  0  0  0  0
   50.5846    9.4337   15.1944 C   0  0  0  0  0  0  0  0  0  0  0  0
   50.2851    8.0874   14.5997 C   0  0  2  0  0  0  0  0  0  0  0  0
   52.0093    8.8127   10.7454 C   0  0  0  0  0  0  0  0  0  0  0  0
   47.3251   10.7149   11.3180 C   0  0  0  0  0  0  0  0  0  0  0  0
   51.6982   11.2332   10.7418 C   0  0  0  0  0  0  0  0  0  0  0  0
   52.3999   10.0852   10.3151 C   0  0  0  0  0  0  0  0  0  0  0  0
   52.7097    7.6971   10.4047 O   0  0  0  0  0  0  0  0  0  0  0  0
   51.5112    7.3584   14.5471 O   0  0  0  0  0  0  0  0  0  0  0  0
   46.8680   13.0450   11.7702 C   0  0  0  0  0  0  0  0  0  0  0  0
   49.8977    9.8332   13.4044 C   0  0  2  0  0  0  0  0  0  0  0  0
   49.2036   10.6429   12.3473 C   0  0  0  0  0  0  0  0  0  0  0  0
   50.8245    8.8301   12.7048 C   0  0  2  0  0  0  0  0  0  0  0  0
   47.9028   10.9174   12.7189 C   0  0  0  0  0  0  0  0  0  0  0  0
   48.6228    9.2946   14.0920 C   0  0  1  0  0  0  0  0  0  0  0  0
   47.5588   10.2854   13.8881 O   0  0  0  0  0  0  0  0  0  0  0  0
   51.7976    9.6865   11.8199 C   0  0  2  0  0  0  0  0  0  0  0  0
   52.5310   10.7174   12.6030 N   0  0  0  0  0  0  0  0  0  0  0  0
   49.7174   11.0097   11.1156 C   0  0  0  0  0  0  0  0  0  0  0  0
   50.0586    7.7615   11.9598 C   0  0  0  0  0  0  0  0  0  0  0  0
   51.0416   10.4412   10.6796 C   0  0  0  0  0  0  0  0  0  0  0  0
   50.7171   10.7783   14.3182 C   0  0  0  0  0  0  0  0  0  0  0  0
   48.8533    7.3431   12.3769 C   0  0  0  0  0  0  0  0  0  0  0  0
   48.2006    7.8622   13.6330 C   0  0  2  0  0  0  0  0  0  0  0  0
   47.0786   11.7024   11.9310 C   0  0  0  0  0  0  0  0  0  0  0  0
   52.2263   10.7260   14.0323 C   0  0  0  0  0  0  0  0  0  0  0  0
   48.9038   11.7904   10.2944 C   0  0  0  0  0  0  0  0  0  0  0  0
   47.6038   12.1534   10.7103 C   0  0  0  0  0  0  0  0  0  0  0  0
   53.9701   10.6724   12.3620 C   0  0  0  0  0  0  0  0  0  0  0  0
   46.7855    7.7312   13.5417 O   0  0  0  0  0  0  0  0  0  0  0  0
   45.8224   11.9471   12.4053 O   0  0  0  0  0  0  0  0  0  0  0  0
   44.9844   12.7773   11.6157 C   0  0  0  0  0  0  0  0  0  0  0  0
   51.2418    8.1079   11.6154 H   0  0  0  0  0  0  0  0  0  0  0  0
   53.9575   10.8095   14.7505 H   0  0  0  0  0  0  0  0  0  0  0  0
   48.6690    8.1040   12.6756 H   0  0  0  0  0  0  0  0  0  0  0  0
   49.2971    8.9737   11.2807 H   0  0  0  0  0  0  0  0  0  0  0  0
   48.3685   11.3608   10.8360 H   0  0  0  0  0  0  0  0  0  0  0  0
   44.1908    9.4107   12.6580 H   0  0  0  0  0  0  0  0  0  0  0  0
   46.3310    8.3523   13.1242 H   0  0  0  0  0  0  0  0  0  0  0  0
   49.4828   12.0512   15.6103 H   0  0  0  0  0  0  0  0  0  0  0  0
   51.9494   11.8474   15.6437 H   0  0  0  0  0  0  0  0  0  0  0  0
   53.8936    6.2771   10.0177 H   0  0  0  0  0  0  0  0  0  0  0  0
   52.6342    7.5059    9.8553 H   0  0  0  0  0  0  0  0  0  0  0  0
   52.5095    6.2150   11.1150 H   0  0  0  0  0  0  0  0  0  0  0  0
   47.6291   13.7592   11.2126 H   0  0  0  0  0  0  0  0  0  0  0  0
   48.0092   13.1899    9.5412 H   0  0  0  0  0  0  0  0  0  0  0  0
   46.9175   14.5540    9.8026 H   0  0  0  0  0  0  0  0  0  0  0  0
   56.0272   11.0558   13.5809 H   0  0  0  0  0  0  0  0  0  0  0  0
   57.2336    9.7655   13.6379 H   0  0  0  0  0  0  0  0  0  0  0  0
   56.0452    9.8672   14.9417 H   0  0  0  0  0  0  0  0  0  0  0  0
   41.8290   11.6682   11.0649 H   0  0  0  0  0  0  0  0  0  0  0  0
   42.5645   10.0623   11.0371 H   0  0  0  0  0  0  0  0  0  0  0  0
   42.5040   11.0238   12.5662 H   0  0  0  0  0  0  0  0  0  0  0  0
   47.8985   10.3352   14.4045 H   0  0  0  0  0  0  0  0  0  0  0  0
   48.7127    7.3667   13.3022 H   0  0  0  0  0  0  0  0  0  0  0  0
   48.4818   12.6867   13.8160 H   0  0  0  0  0  0  0  0  0  0  0  0
   50.1537   11.4857   15.3766 H   0  0  0  0  0  0  0  0  0  0  0  0
   50.5844   12.7766   12.8610 H   0  0  0  0  0  0  0  0  0  0  0  0
   49.6017   13.0075   11.4253 H   0  0  0  0  0  0  0  0  0  0  0  0
   46.9316    8.9661   12.5166 H   0  0  0  0  0  0  0  0  0  0  0  0
   47.8876    8.6474   11.0745 H   0  0  0  0  0  0  0  0  0  0  0  0
   51.3504    9.4676   15.9660 H   0  0  0  0  0  0  0  0  0  0  0  0
   49.6522    7.5657   15.3281 H   0  0  0  0  0  0  0  0  0  0  0  0
   46.3132   10.5995   10.9105 H   0  0  0  0  0  0  0  0  0  0  0  0
   47.9678   10.9792   10.4698 H   0  0  0  0  0  0  0  0  0  0  0  0
   52.0518   12.2174   10.4418 H   0  0  0  0  0  0  0  0  0  0  0  0
   53.2718   10.2136    9.6799 H   0  0  0  0  0  0  0  0  0  0  0  0
   53.4431    7.9540    9.8234 H   0  0  0  0  0  0  0  0  0  0  0  0
   51.6751    7.1654   13.6016 H   0  0  0  0  0  0  0  0  0  0  0  0
   46.8336   13.8214   12.5419 H   0  0  0  0  0  0  0  0  0  0  0  0
   47.4972   13.3992   10.9483 H   0  0  0  0  0  0  0  0  0  0  0  0
   45.8462   12.9413   11.3884 H   0  0  0  0  0  0  0  0  0  0  0  0
   51.4218    8.2864   13.4507 H   0  0  0  0  0  0  0  0  0  0  0  0
   48.7634    9.2435   15.1794 H   0  0  0  0  0  0  0  0  0  0  0  0
   52.5145    8.9997   11.3486 H   0  0  0  0  0  0  0  0  0  0  0  0
   50.5150    7.3100   11.0829 H   0  0  0  0  0  0  0  0  0  0  0  0
   51.6692   11.2360   10.2575 H   0  0  0  0  0  0  0  0  0  0  0  0
   50.8469    9.7288    9.8675 H   0  0  0  0  0  0  0  0  0  0  0  0
   50.3704   11.8167   14.2339 H   0  0  0  0  0  0  0  0  0  0  0  0
   50.5843   10.4961   15.3699 H   0  0  0  0  0  0  0  0  0  0  0  0
   48.3550    6.5513   11.8254 H   0  0  0  0  0  0  0  0  0  0  0  0
   48.5106    7.1678   14.4260 H   0  0  0  0  0  0  0  0  0  0  0  0
   52.6910   11.5986   14.5081 H   0  0  0  0  0  0  0  0  0  0  0  0
   52.6586    9.8434   14.5228 H   0  0  0  0  0  0  0  0  0  0  0  0
   49.2577   12.1078    9.3166 H   0  0  0  0  0  0  0  0  0  0  0  0
   47.0137   12.7640   10.0340 H   0  0  0  0  0  0  0  0  0  0  0  0
   54.4699   11.5168   12.8496 H   0  0  0  0  0  0  0  0  0  0  0  0
   54.4172    9.7439   12.7339 H   0  0  0  0  0  0  0  0  0  0  0  0
   54.1863   10.7572   11.2913 H   0  0  0  0  0  0  0  0  0  0  0  0
   46.5775    6.8955   13.0982 H   0  0  0  0  0  0  0  0  0  0  0  0
   45.4157   13.7773   11.4986 H   0  0  0  0  0  0  0  0  0  0  0  0
   44.0305   12.8861   12.1408 H   0  0  0  0  0  0  0  0  0  0  0  0
   44.7776   12.3196   10.6424 H   0  0  0  0  0  0  0  0  0  0  0  0
  2  1  1  0
  3  1  2  0
  4  1  1  0
  5  3  1  0
  6  7  1  0
  7  4  2  0
  8  2  2  0
  9 12  2  0
 10  2  1  0
 11 14  2  0
 12 13  1  0
 13 10  1  0
 14 15  1  0
 15 13  2  0
 16 21  2  0
 17  5  1  0
 18  6  1  0
 19  9  1  0
 20 11  1  0
 21  4  1  0
 22 17  1  0
 23 19  1  0
 24 18  1  0
 25 20  1  0
 16  8  1  0
  6  5  2  0
 11  9  1  0
 27 26  1  0
 28 26  1  0
 29 27  2  0
 30 26  1  0
 30 31  1  0
 32 28  1  0
 33 27  1  0
 28 34  1  0
 32 35  1  0
 36 41  1  0
 26 37  1  6
 38 39  1  0
 39 30  1  0
 40 29  1  0
 41 37  1  0
 42 33  2  0
 43 42  1  0
 44 40  1  0
 39 45  1  0
 46 36  1  0
 29 31  1  0
 32 36  1  0
 38 34  2  0
 35 33  1  0
 43 40  2  0
 48 47  1  0
 49 47  1  0
 50 48  2  0
 51 47  1  0
 52 51  1  0
 53 49  1  0
 54 62  1  0
 55 48  1  0
 49 56  1  0
 53 57  1  0
 47 58  1  1
 59 60  1  0
 60 51  1  0
 61 50  1  0
 62 58  1  0
 63 55  2  0
 64 63  1  0
 65 54  1  0
 60 66  1  0
 67 61  1  0
 68 67  1  0
 52 50  1  0
 53 54  1  0
 59 56  2  0
 57 55  1  0
 64 61  2  0
  3 69  1  0
  7 70  1  0
 10 71  1  0
 10 72  1  0
 12 73  1  0
 14 74  1  0
 15 75  1  0
 16 76  1  0
 21 77  1  0
 22 78  1  0
 22 79  1  0
 22 80  1  0
 23 81  1  0
 23 82  1  0
 23 83  1  0
 24 84  1  0
 24 85  1  0
 24 86  1  0
 25 87  1  0
 25 88  1  0
 25 89  1  0
 28 90  1  1
 30 91  1  6
 32 92  1  1
 34 93  1  0
 35 94  1  0
 35 95  1  0
 37 96  1  0
 37 97  1  0
 38 98  1  0
 39 99  1  1
 41100  1  0
 41101  1  0
 42102  1  0
 43103  1  0
 44104  1  0
 45105  1  0
 46106  1  0
 46107  1  0
 46108  1  0
 49109  1  1
 51110  1  1
 53111  1  6
 56112  1  0
 57113  1  0
 57114  1  0
 58115  1  0
 58116  1  0
 59117  1  0
 60118  1  1
 62119  1  0
 62120  1  0
 63121  1  0
 64122  1  0
 65123  1  0
 65124  1  0
 65125  1  0
 66126  1  0
 68127  1  0
 68128  1  0
 68129  1  0
M  END
> <Uni-Dock RESULT> 
ENERGY=   -5.744  LOWER_BOUND=    6.169  UPPER_BOUND=    9.129
INTER + INTRA:          -5.744
INTER:                  -5.744
INTRA:                   0.000
UNBOUND:                 0.000

$$$$

     RDKit          3D

129139  0  0  0  0  0  0  0  0999 V2000
   48.7902   11.0108   19.2976 C   0  0  0  0  0  0  0  0  0  0  0  0
   48.9110   12.3769   19.6662 C   0  0  0  0  0  0  0  0  0  0  0  0
   49.7316   10.2847   18.5238 C   0  0  0  0  0  0  0  0  0  0  0  0
   47.6365   10.3265   19.7391 C   0  0  0  0  0  0  0  0  0  0  0  0
   49.5516    8.9287   18.2208 C   0  0  0  0  0  0  0  0  0  0  0  0
   48.4094    8.2605   18.6904 C   0  0  0  0  0  0  0  0  0  0  0  0
   47.4602    8.9654   19.4355 C   0  0  0  0  0  0  0  0  0  0  0  0
   47.9445   13.0363   20.3612 N   0  0  0  0  0  0  0  0  0  0  0  0
   51.1839   15.3554   22.2336 C   0  0  0  0  0  0  0  0  0  0  0  0
   50.1217   13.2017   19.2559 C   0  0  0  0  0  0  0  0  0  0  0  0
   51.0281   16.6545   21.7163 C   0  0  0  0  0  0  0  0  0  0  0  0
   50.8989   14.2469   21.4280 C   0  0  0  0  0  0  0  0  0  0  0  0
   50.4226   14.4133   20.1172 C   0  0  0  0  0  0  0  0  0  0  0  0
   50.5413   16.8203   20.4150 C   0  0  0  0  0  0  0  0  0  0  0  0
   50.2370   15.7083   19.6238 C   0  0  0  0  0  0  0  0  0  0  0  0
   46.8594   12.3474   20.7528 C   0  0  0  0  0  0  0  0  0  0  0  0
   50.4294    8.1728   17.4835 O   0  0  0  0  0  0  0  0  0  0  0  0
   48.3055    6.9322   18.3586 O   0  0  0  0  0  0  0  0  0  0  0  0
   51.6588   15.2559   23.5193 O   0  0  0  0  0  0  0  0  0  0  0  0
   51.3549   17.6863   22.5619 O   0  0  0  0  0  0  0  0  0  0  0  0
   46.6668   11.0100   20.4768 C   0  0  0  0  0  0  0  0  0  0  0  0
   51.5957    8.8056   16.9783 C   0  0  0  0  0  0  0  0  0  0  0  0
   51.3052   14.0731   24.2250 C   0  0  0  0  0  0  0  0  0  0  0  0
   47.2560    6.1830   18.9539 C   0  0  0  0  0  0  0  0  0  0  0  0
   51.3617   18.9987   22.0193 C   0  0  0  0  0  0  0  0  0  0  0  0
   49.5253   13.0773   19.4692 C   0  0  2  0  0  0  0  0  0  0  0  0
   50.0872   11.7549   19.8777 C   0  0  0  0  0  0  0  0  0  0  0  0
   48.2777   13.3779   20.3114 C   0  0  2  0  0  0  0  0  0  0  0  0
   50.5735   11.0732   18.7837 C   0  0  0  0  0  0  0  0  0  0  0  0
   49.3221   12.7526   17.9756 C   0  0  1  0  0  0  0  0  0  0  0  0
   50.3200   11.7305   17.6057 O   0  0  0  0  0  0  0  0  0  0  0  0
   48.7367   13.3423   21.8073 C   0  0  1  0  0  0  0  0  0  0  0  0
   50.0604   11.2127   21.1502 C   0  0  0  0  0  0  0  0  0  0  0  0
   47.1216   12.4692   19.9733 C   0  0  0  0  0  0  0  0  0  0  0  0
   49.2945   11.9352   22.2278 C   0  0  0  0  0  0  0  0  0  0  0  0
   49.6671   14.4887   22.0000 N   0  0  0  0  0  0  0  0  0  0  0  0
   50.5778   14.1803   19.6996 C   0  0  0  0  0  0  0  0  0  0  0  0
   46.9646   11.9633   18.7404 C   0  0  0  0  0  0  0  0  0  0  0  0
   47.8933   12.2566   17.5971 C   0  0  2  0  0  0  0  0  0  0  0  0
   51.1674    9.8406   18.9378 C   0  0  0  0  0  0  0  0  0  0  0  0
   50.8870   14.3950   21.1888 C   0  0  0  0  0  0  0  0  0  0  0  0
   50.6574    9.9617   21.3213 C   0  0  0  0  0  0  0  0  0  0  0  0
   51.2269    9.2858   20.2207 C   0  0  0  0  0  0  0  0  0  0  0  0
   51.6470    9.1785   17.8503 O   0  0  0  0  0  0  0  0  0  0  0  0
   47.9268   11.0989   16.7628 O   0  0  0  0  0  0  0  0  0  0  0  0
   49.9821   14.7453   23.4026 C   0  0  0  0  0  0  0  0  0  0  0  0
   48.6963   12.2974   19.5922 C   0  0  2  0  0  0  0  0  0  0  0  0
   49.6297   12.7342   20.6842 C   0  0  0  0  0  0  0  0  0  0  0  0
   49.4603   11.3422   18.6656 C   0  0  2  0  0  0  0  0  0  0  0  0
   49.4063   14.0551   21.0173 C   0  0  0  0  0  0  0  0  0  0  0  0
   48.3536   13.7092   19.0655 C   0  0  1  0  0  0  0  0  0  0  0  0
   48.4814   14.6434   20.1908 O   0  0  0  0  0  0  0  0  0  0  0  0
   49.9646   10.1684   19.5772 C   0  0  2  0  0  0  0  0  0  0  0  0
   48.8621    9.5056   20.3250 N   0  0  0  0  0  0  0  0  0  0  0  0
   50.6504   11.9884   21.2478 C   0  0  0  0  0  0  0  0  0  0  0  0
   50.5399   12.0463   17.8768 C   0  0  0  0  0  0  0  0  0  0  0  0
   51.0002   10.6558   20.6409 C   0  0  0  0  0  0  0  0  0  0  0  0
   47.4750   11.5794   20.2188 C   0  0  0  0  0  0  0  0  0  0  0  0
   50.4188   13.3339   17.5172 C   0  0  0  0  0  0  0  0  0  0  0  0
   49.1905   14.1531   17.8232 C   0  0  2  0  0  0  0  0  0  0  0  0
   50.1066   14.6683   22.0419 C   0  0  0  0  0  0  0  0  0  0  0  0
   47.5329   10.0519   20.0591 C   0  0  0  0  0  0  0  0  0  0  0  0
   51.3820   12.5857   22.2744 C   0  0  0  0  0  0  0  0  0  0  0  0
   51.0955   13.9068   22.6836 C   0  0  0  0  0  0  0  0  0  0  0  0
   48.8858    8.0542   20.1706 C   0  0  0  0  0  0  0  0  0  0  0  0
   49.5232   15.5367   17.8759 O   0  0  0  0  0  0  0  0  0  0  0  0
   49.7847   15.9654   22.3189 O   0  0  0  0  0  0  0  0  0  0  0  0
   50.4782   16.5884   23.3894 C   0  0  0  0  0  0  0  0  0  0  0  0
   50.6111   10.7985   18.1532 H   0  0  0  0  0  0  0  0  0  0  0  0
   46.5609    8.4701   19.7892 H   0  0  0  0  0  0  0  0  0  0  0  0
   49.9835   13.5089   18.2115 H   0  0  0  0  0  0  0  0  0  0  0  0
   51.0271   12.5843   19.2852 H   0  0  0  0  0  0  0  0  0  0  0  0
   51.0423   13.2379   21.8012 H   0  0  0  0  0  0  0  0  0  0  0  0
   50.3769   17.8039   19.9890 H   0  0  0  0  0  0  0  0  0  0  0  0
   49.8495   15.8635   18.6198 H   0  0  0  0  0  0  0  0  0  0  0  0
   46.1257   12.9187   21.3138 H   0  0  0  0  0  0  0  0  0  0  0  0
   45.7667   10.5178   20.8300 H   0  0  0  0  0  0  0  0  0  0  0  0
   52.1682    8.0567   16.4228 H   0  0  0  0  0  0  0  0  0  0  0  0
   52.2307    9.1719   17.7920 H   0  0  0  0  0  0  0  0  0  0  0  0
   51.3382    9.6107   16.2821 H   0  0  0  0  0  0  0  0  0  0  0  0
   50.2370   13.8471   24.1297 H   0  0  0  0  0  0  0  0  0  0  0  0
   51.9173   13.2275   23.8954 H   0  0  0  0  0  0  0  0  0  0  0  0
   51.5157   14.2412   25.2854 H   0  0  0  0  0  0  0  0  0  0  0  0
   47.3138    6.2163   20.0465 H   0  0  0  0  0  0  0  0  0  0  0  0
   47.3750    5.1396   18.6465 H   0  0  0  0  0  0  0  0  0  0  0  0
   46.2788    6.5246   18.5979 H   0  0  0  0  0  0  0  0  0  0  0  0
   51.7429   19.6756   22.7895 H   0  0  0  0  0  0  0  0  0  0  0  0
   52.0301   19.0705   21.1549 H   0  0  0  0  0  0  0  0  0  0  0  0
   50.3472   19.3219   21.7640 H   0  0  0  0  0  0  0  0  0  0  0  0
   47.9222   14.3957   20.0892 H   0  0  0  0  0  0  0  0  0  0  0  0
   49.5455   13.6305   17.3561 H   0  0  0  0  0  0  0  0  0  0  0  0
   47.8544   13.5424   22.4309 H   0  0  0  0  0  0  0  0  0  0  0  0
   46.3795   12.2622   20.7400 H   0  0  0  0  0  0  0  0  0  0  0  0
   48.4324   11.3054   22.4864 H   0  0  0  0  0  0  0  0  0  0  0  0
   49.9076   12.0040   23.1316 H   0  0  0  0  0  0  0  0  0  0  0  0
   50.2000   15.1219   19.2784 H   0  0  0  0  0  0  0  0  0  0  0  0
   51.5146   13.9574   19.1726 H   0  0  0  0  0  0  0  0  0  0  0  0
   46.0992   11.3425   18.5202 H   0  0  0  0  0  0  0  0  0  0  0  0
   47.4103   13.0439   17.0055 H   0  0  0  0  0  0  0  0  0  0  0  0
   51.4588   15.3268   21.2793 H   0  0  0  0  0  0  0  0  0  0  0  0
   51.5434   13.5968   21.5555 H   0  0  0  0  0  0  0  0  0  0  0  0
   50.6640    9.4877   22.3006 H   0  0  0  0  0  0  0  0  0  0  0  0
   51.6753    8.3098   20.3838 H   0  0  0  0  0  0  0  0  0  0  0  0
   52.0349    8.3381   18.1420 H   0  0  0  0  0  0  0  0  0  0  0  0
   48.8552   10.7888   16.7612 H   0  0  0  0  0  0  0  0  0  0  0  0
   49.0659   14.8538   23.9928 H   0  0  0  0  0  0  0  0  0  0  0  0
   50.5944   13.9581   23.8524 H   0  0  0  0  0  0  0  0  0  0  0  0
   50.5279   15.6903   23.5001 H   0  0  0  0  0  0  0  0  0  0  0  0
   48.7789   10.9262   17.9096 H   0  0  0  0  0  0  0  0  0  0  0  0
   47.2992   13.7635   18.7653 H   0  0  0  0  0  0  0  0  0  0  0  0
   50.4679    9.4348   18.9318 H   0  0  0  0  0  0  0  0  0  0  0  0
   51.4178   11.4804   17.5765 H   0  0  0  0  0  0  0  0  0  0  0  0
   51.1265    9.9060   21.4319 H   0  0  0  0  0  0  0  0  0  0  0  0
   51.9751   10.7603   20.1473 H   0  0  0  0  0  0  0  0  0  0  0  0
   47.3680   11.8264   21.2833 H   0  0  0  0  0  0  0  0  0  0  0  0
   46.5499   11.9134   19.7329 H   0  0  0  0  0  0  0  0  0  0  0  0
   51.2077   13.7877   16.9247 H   0  0  0  0  0  0  0  0  0  0  0  0
   48.5424   14.0388   16.9434 H   0  0  0  0  0  0  0  0  0  0  0  0
   46.8031    9.6117   20.7501 H   0  0  0  0  0  0  0  0  0  0  0  0
   47.2005    9.7794   19.0483 H   0  0  0  0  0  0  0  0  0  0  0  0
   52.1944   12.0448   22.7533 H   0  0  0  0  0  0  0  0  0  0  0  0
   51.6934   14.3227   23.4886 H   0  0  0  0  0  0  0  0  0  0  0  0
   48.1459    7.5838   20.8277 H   0  0  0  0  0  0  0  0  0  0  0  0
   48.6757    7.7501   19.1392 H   0  0  0  0  0  0  0  0  0  0  0  0
   49.8623    7.6499   20.4595 H   0  0  0  0  0  0  0  0  0  0  0  0
   50.1745   15.7276   17.1847 H   0  0  0  0  0  0  0  0  0  0  0  0
   50.2937   16.0687   24.3357 H   0  0  0  0  0  0  0  0  0  0  0  0
   50.0931   17.6078   23.4894 H   0  0  0  0  0  0  0  0  0  0  0  0
   51.5508   16.6575   23.1790 H   0  0  0  0  0  0  0  0  0  0  0  0
  2  1  1  0
  3  1  2  0
  4  1  1  0
  5  3  1  0
  6  7  1  0
  7  4  2  0
  8  2  2  0
  9 12  2  0
 10  2  1  0
 11 14  2  0
 12 13  1  0
 13 10  1  0
 14 15  1  0
 15 13  2  0
 16 21  2  0
 17  5  1  0
 18  6  1  0
 19  9  1  0
 20 11  1  0
 21  4  1  0
 22 17  1  0
 23 19  1  0
 24 18  1  0
 25 20  1  0
 16  8  1  0
  6  5  2  0
 11  9  1  0
 27 26  1  0
 28 26  1  0
 29 27  2  0
 30 26  1  0
 30 31  1  0
 32 28  1  0
 33 27  1  0
 28 34  1  0
 32 35  1  0
 36 41  1  0
 26 37  1  6
 38 39  1  0
 39 30  1  0
 40 29  1  0
 41 37  1  0
 42 33  2  0
 43 42  1  0
 44 40  1  0
 39 45  1  0
 46 36  1  0
 29 31  1  0
 32 36  1  0
 38 34  2  0
 35 33  1  0
 43 40  2  0
 48 47  1  0
 49 47  1  0
 50 48  2  0
 51 47  1  0
 52 51  1  0
 53 49  1  0
 54 62  1  0
 55 48  1  0
 49 56  1  0
 53 57  1  0
 47 58  1  1
 59 60  1  0
 60 51  1  0
 61 50  1  0
 62 58  1  0
 63 55  2  0
 64 63  1  0
 65 54  1  0
 60 66  1  0
 67 61  1  0
 68 67  1  0
 52 50  1  0
 53 54  1  0
 59 56  2  0
 57 55  1  0
 64 61  2  0
  3 69  1  0
  7 70  1  0
 10 71  1  0
 10 72  1  0
 12 73  1  0
 14 74  1  0
 15 75  1  0
 16 76  1  0
 21 77  1  0
 22 78  1  0
 22 79  1  0
 22 80  1  0
 23 81  1  0
 23 82  1  0
 23 83  1  0
 24 84  1  0
 24 85  1  0
 24 86  1  0
 25 87  1  0
 25 88  1  0
 25 89  1  0
 28 90  1  1
 30 91  1  6
 32 92  1  1
 34 93  1  0
 35 94  1  0
 35 95  1  0
 37 96  1  0
 37 97  1  0
 38 98  1  0
 39 99  1  1
 41100  1  0
 41101  1  0
 42102  1  0
 43103  1  0
 44104  1  0
 45105  1  0
 46106  1  0
 46107  1  0
 46108  1  0
 49109  1  1
 51110  1  1
 53111  1  6
 56112  1  0
 57113  1  0
 57114  1  0
 58115  1  0
 58116  1  0
 59117  1  0
 60118  1  1
 62119  1  0
 62120  1  0
 63121  1  0
 64122  1  0
 65123  1  0
 65124  1  0
 65125  1  0
 66126  1  0
 68127  1  0
 68128  1  0
 68129  1  0
M  END
> <Uni-Dock RESULT> 
ENERGY=   -5.396  LOWER_BOUND=    2.199  UPPER_BOUND=    5.990
INTER + INTRA:          -5.396
INTER:                  -5.396
INTRA:                   0.000
UNBOUND:                 0.000

$$$$

     RDKit          3D

129139  0  0  0  0  0  0  0  0999 V2000
   50.8836    8.2439   16.7234 C   0  0  0  0  0  0  0  0  0  0  0  0
   50.6067    7.7388   18.0215 C   0  0  0  0  0  0  0  0  0  0  0  0
   50.2665    7.8041   15.5243 C   0  0  0  0  0  0  0  0  0  0  0  0
   51.8540    9.2652   16.6257 C   0  0  0  0  0  0  0  0  0  0  0  0
   50.5778    8.3702   14.2811 C   0  0  0  0  0  0  0  0  0  0  0  0
   51.5277    9.4018   14.2090 C   0  0  0  0  0  0  0  0  0  0  0  0
   52.1622    9.8328   15.3772 C   0  0  0  0  0  0  0  0  0  0  0  0
   51.2753    8.1601   19.1294 N   0  0  0  0  0  0  0  0  0  0  0  0
   47.5325    7.5257   21.3580 C   0  0  0  0  0  0  0  0  0  0  0  0
   49.5679    6.6490   18.2400 C   0  0  0  0  0  0  0  0  0  0  0  0
   47.8056    6.4282   22.1950 C   0  0  0  0  0  0  0  0  0  0  0  0
   48.0977    7.5826   20.0788 C   0  0  0  0  0  0  0  0  0  0  0  0
   48.9664    6.5742   19.6303 C   0  0  0  0  0  0  0  0  0  0  0  0
   48.6812    5.4304   21.7531 C   0  0  0  0  0  0  0  0  0  0  0  0
   49.2601    5.5055   20.4826 C   0  0  0  0  0  0  0  0  0  0  0  0
   52.1970    9.1275   18.9876 C   0  0  0  0  0  0  0  0  0  0  0  0
   50.0100    7.9918   13.0895 O   0  0  0  0  0  0  0  0  0  0  0  0
   51.7755    9.9105   12.9580 O   0  0  0  0  0  0  0  0  0  0  0  0
   46.6710    8.4771   21.8490 O   0  0  0  0  0  0  0  0  0  0  0  0
   47.1903    6.4353   23.4230 O   0  0  0  0  0  0  0  0  0  0  0  0
   52.5110    9.7076   17.7765 C   0  0  0  0  0  0  0  0  0  0  0  0
   49.0500    6.9459   13.1088 C   0  0  0  0  0  0  0  0  0  0  0  0
   46.8151    9.7857   21.3116 C   0  0  0  0  0  0  0  0  0  0  0  0
   52.5996   11.0634   12.8652 C   0  0  0  0  0  0  0  0  0  0  0  0
   47.3174    5.2698   24.2243 C   0  0  0  0  0  0  0  0  0  0  0  0
   50.0671    7.0367   18.3715 C   0  0  2  0  0  0  0  0  0  0  0  0
   49.4458    7.9594   17.3745 C   0  0  0  0  0  0  0  0  0  0  0  0
   50.9653    7.8458   19.3174 C   0  0  2  0  0  0  0  0  0  0  0  0
   49.3611    7.3561   16.1389 C   0  0  0  0  0  0  0  0  0  0  0  0
   50.7523    6.0908   17.3648 C   0  0  1  0  0  0  0  0  0  0  0  0
   49.9605    6.1215   16.1200 O   0  0  0  0  0  0  0  0  0  0  0  0
   50.0489    8.9312   19.9743 C   0  0  1  0  0  0  0  0  0  0  0  0
   49.0772    9.2744   17.5958 C   0  0  0  0  0  0  0  0  0  0  0  0
   52.1970    8.3782   18.6273 C   0  0  0  0  0  0  0  0  0  0  0  0
   49.4303    9.9120   18.9143 C   0  0  0  0  0  0  0  0  0  0  0  0
   49.0702    8.2075   20.8317 N   0  0  0  0  0  0  0  0  0  0  0  0
   48.9620    6.3363   19.1875 C   0  0  0  0  0  0  0  0  0  0  0  0
   52.7600    7.7281   17.5973 C   0  0  0  0  0  0  0  0  0  0  0  0
   52.2418    6.4284   17.0515 C   0  0  2  0  0  0  0  0  0  0  0  0
   48.7888    8.0197   15.0768 C   0  0  0  0  0  0  0  0  0  0  0  0
   48.1815    7.3138   20.0789 C   0  0  0  0  0  0  0  0  0  0  0  0
   48.4971    9.9609   16.5268 C   0  0  0  0  0  0  0  0  0  0  0  0
   48.3357    9.3283   15.2753 C   0  0  0  0  0  0  0  0  0  0  0  0
   48.7077    7.4122   13.8621 O   0  0  0  0  0  0  0  0  0  0  0  0
   52.5166    6.4104   15.6508 O   0  0  0  0  0  0  0  0  0  0  0  0
   48.3108    9.0916   21.7114 C   0  0  0  0  0  0  0  0  0  0  0  0
   50.8363    7.7788   17.9613 C   0  0  2  0  0  0  0  0  0  0  0  0
   49.5866    8.1618   18.7004 C   0  0  0  0  0  0  0  0  0  0  0  0
   50.4435    7.3913   16.5294 C   0  0  2  0  0  0  0  0  0  0  0  0
   49.6482    7.7403   20.0135 C   0  0  0  0  0  0  0  0  0  0  0  0
   51.2856    6.6577   18.9253 C   0  0  1  0  0  0  0  0  0  0  0  0
   50.7713    6.9902   20.2596 O   0  0  0  0  0  0  0  0  0  0  0  0
   49.7094    8.6423   15.9300 C   0  0  2  0  0  0  0  0  0  0  0  0
   50.5317    9.8805   15.9994 N   0  0  0  0  0  0  0  0  0  0  0  0
   48.4629    8.7687   18.1670 C   0  0  0  0  0  0  0  0  0  0  0  0
   49.6549    6.1033   16.4775 C   0  0  0  0  0  0  0  0  0  0  0  0
   48.3707    8.9489   16.6751 C   0  0  0  0  0  0  0  0  0  0  0  0
   51.8118    8.9821   17.9462 C   0  0  0  0  0  0  0  0  0  0  0  0
   49.8446    5.1282   17.3803 C   0  0  0  0  0  0  0  0  0  0  0  0
   50.8814    5.2185   18.4713 C   0  0  2  0  0  0  0  0  0  0  0  0
   48.6352    8.0297   20.9115 C   0  0  0  0  0  0  0  0  0  0  0  0
   51.8573    9.6977   16.5868 C   0  0  0  0  0  0  0  0  0  0  0  0
   47.4202    9.0606   19.0464 C   0  0  0  0  0  0  0  0  0  0  0  0
   47.5168    8.7150   20.4125 C   0  0  0  0  0  0  0  0  0  0  0  0
   50.6053   10.5662   14.7128 C   0  0  0  0  0  0  0  0  0  0  0  0
   50.5056    4.4011   19.5752 O   0  0  0  0  0  0  0  0  0  0  0  0
   48.8088    7.6020   22.1959 O   0  0  0  0  0  0  0  0  0  0  0  0
   47.7871    7.9237   23.1274 C   0  0  0  0  0  0  0  0  0  0  0  0
   49.5380    7.0030   15.5745 H   0  0  0  0  0  0  0  0  0  0  0  0
   52.9143   10.6151   15.3374 H   0  0  0  0  0  0  0  0  0  0  0  0
   50.0264    5.6872   17.9774 H   0  0  0  0  0  0  0  0  0  0  0  0
   48.7219    6.7912   17.5576 H   0  0  0  0  0  0  0  0  0  0  0  0
   47.8735    8.4068   19.4091 H   0  0  0  0  0  0  0  0  0  0  0  0
   48.9430    4.5840   22.3787 H   0  0  0  0  0  0  0  0  0  0  0  0
   49.9461    4.7233   20.1667 H   0  0  0  0  0  0  0  0  0  0  0  0
   52.6914    9.4341   19.9047 H   0  0  0  0  0  0  0  0  0  0  0  0
   53.2638   10.4879   17.7393 H   0  0  0  0  0  0  0  0  0  0  0  0
   48.7118    6.7836   12.0809 H   0  0  0  0  0  0  0  0  0  0  0  0
   48.1747    7.2235   13.7058 H   0  0  0  0  0  0  0  0  0  0  0  0
   49.4928    6.0097   13.4646 H   0  0  0  0  0  0  0  0  0  0  0  0
   47.8634   10.1050   21.2952 H   0  0  0  0  0  0  0  0  0  0  0  0
   46.3696    9.8461   20.3135 H   0  0  0  0  0  0  0  0  0  0  0  0
   46.2679   10.4757   21.9610 H   0  0  0  0  0  0  0  0  0  0  0  0
   52.1908   11.8927   13.4514 H   0  0  0  0  0  0  0  0  0  0  0  0
   52.6197   11.3758   11.8167 H   0  0  0  0  0  0  0  0  0  0  0  0
   53.6281   10.8361   13.1637 H   0  0  0  0  0  0  0  0  0  0  0  0
   46.6864    5.4027   25.1080 H   0  0  0  0  0  0  0  0  0  0  0  0
   46.9623    4.3797   23.6945 H   0  0  0  0  0  0  0  0  0  0  0  0
   48.3492    5.1416   24.5678 H   0  0  0  0  0  0  0  0  0  0  0  0
   51.3410    7.1891   20.1169 H   0  0  0  0  0  0  0  0  0  0  0  0
   50.7132    5.0538   17.7217 H   0  0  0  0  0  0  0  0  0  0  0  0
   50.6755    9.5326   20.6474 H   0  0  0  0  0  0  0  0  0  0  0  0
   52.6577    9.2854   19.0095 H   0  0  0  0  0  0  0  0  0  0  0  0
   50.1822   10.6853   18.7060 H   0  0  0  0  0  0  0  0  0  0  0  0
   48.5562   10.4330   19.3168 H   0  0  0  0  0  0  0  0  0  0  0  0
   49.4254    5.5709   19.8246 H   0  0  0  0  0  0  0  0  0  0  0  0
   48.2534    5.8104   18.5345 H   0  0  0  0  0  0  0  0  0  0  0  0
   53.6695    8.1192   17.1471 H   0  0  0  0  0  0  0  0  0  0  0  0
   52.8647    5.6413   17.4937 H   0  0  0  0  0  0  0  0  0  0  0  0
   47.5817    6.7195   20.7793 H   0  0  0  0  0  0  0  0  0  0  0  0
   47.4676    7.8860   19.4745 H   0  0  0  0  0  0  0  0  0  0  0  0
   48.1895   10.9978   16.6445 H   0  0  0  0  0  0  0  0  0  0  0  0
   47.8899    9.8917   14.4603 H   0  0  0  0  0  0  0  0  0  0  0  0
   48.2734    8.0162   13.2390 H   0  0  0  0  0  0  0  0  0  0  0  0
   51.6489    6.3502   15.2019 H   0  0  0  0  0  0  0  0  0  0  0  0
   48.9832    9.7264   22.2984 H   0  0  0  0  0  0  0  0  0  0  0  0
   47.6114    9.7344   21.1685 H   0  0  0  0  0  0  0  0  0  0  0  0
   47.7329    8.5020   22.4318 H   0  0  0  0  0  0  0  0  0  0  0  0
   51.3456    7.1987   15.9310 H   0  0  0  0  0  0  0  0  0  0  0  0
   52.3781    6.6547   19.0310 H   0  0  0  0  0  0  0  0  0  0  0  0
   49.4653    8.4178   14.8821 H   0  0  0  0  0  0  0  0  0  0  0  0
   48.9396    5.9633   15.6714 H   0  0  0  0  0  0  0  0  0  0  0  0
   48.0195    9.9618   16.4417 H   0  0  0  0  0  0  0  0  0  0  0  0
   47.6047    8.2562   16.3028 H   0  0  0  0  0  0  0  0  0  0  0  0
   51.5611    9.7106   18.7285 H   0  0  0  0  0  0  0  0  0  0  0  0
   52.8331    8.6434   18.1598 H   0  0  0  0  0  0  0  0  0  0  0  0
   49.2755    4.2083   17.2837 H   0  0  0  0  0  0  0  0  0  0  0  0
   51.7823    4.7508   18.0511 H   0  0  0  0  0  0  0  0  0  0  0  0
   52.3383   10.6728   16.7340 H   0  0  0  0  0  0  0  0  0  0  0  0
   52.5070    9.1360   15.9021 H   0  0  0  0  0  0  0  0  0  0  0  0
   46.5143    9.5381   18.6812 H   0  0  0  0  0  0  0  0  0  0  0  0
   46.6780    8.9672   21.0536 H   0  0  0  0  0  0  0  0  0  0  0  0
   51.1078   11.5340   14.8193 H   0  0  0  0  0  0  0  0  0  0  0  0
   51.1470    9.9753   13.9660 H   0  0  0  0  0  0  0  0  0  0  0  0
   49.6013   10.7760   14.3277 H   0  0  0  0  0  0  0  0  0  0  0  0
   50.1068    3.5853   19.2379 H   0  0  0  0  0  0  0  0  0  0  0  0
   47.6724    9.0082   23.2295 H   0  0  0  0  0  0  0  0  0  0  0  0
   48.0865    7.5278   24.1026 H   0  0  0  0  0  0  0  0  0  0  0  0
   46.8384    7.4500   22.8535 H   0  0  0  0  0  0  0  0  0  0  0  0
  2  1  1  0
  3  1  2  0
  4  1  1  0
  5  3  1  0
  6  7  1  0
  7  4  2  0
  8  2  2  0
  9 12  2  0
 10  2  1  0
 11 14  2  0
 12 13  1  0
 13 10  1  0
 14 15  1  0
 15 13  2  0
 16 21  2  0
 17  5  1  0
 18  6  1  0
 19  9  1  0
 20 11  1  0
 21  4  1  0
 22 17  1  0
 23 19  1  0
 24 18  1  0
 25 20  1  0
 16  8  1  0
  6  5  2  0
 11  9  1  0
 27 26  1  0
 28 26  1  0
 29 27  2  0
 30 26  1  0
 30 31  1  0
 32 28  1  0
 33 27  1  0
 28 34  1  0
 32 35  1  0
 36 41  1  0
 26 37  1  6
 38 39  1  0
 39 30  1  0
 40 29  1  0
 41 37  1  0
 42 33  2  0
 43 42  1  0
 44 40  1  0
 39 45  1  0
 46 36  1  0
 29 31  1  0
 32 36  1  0
 38 34  2  0
 35 33  1  0
 43 40  2  0
 48 47  1  0
 49 47  1  0
 50 48  2  0
 51 47  1  0
 52 51  1  0
 53 49  1  0
 54 62  1  0
 55 48  1  0
 49 56  1  0
 53 57  1  0
 47 58  1  1
 59 60  1  0
 60 51  1  0
 61 50  1  0
 62 58  1  0
 63 55  2  0
 64 63  1  0
 65 54  1  0
 60 66  1  0
 67 61  1  0
 68 67  1  0
 52 50  1  0
 53 54  1  0
 59 56  2  0
 57 55  1  0
 64 61  2  0
  3 69  1  0
  7 70  1  0
 10 71  1  0
 10 72  1  0
 12 73  1  0
 14 74  1  0
 15 75  1  0
 16 76  1  0
 21 77  1  0
 22 78  1  0
 22 79  1  0
 22 80  1  0
 23 81  1  0
 23 82  1  0
 23 83  1  0
 24 84  1  0
 24 85  1  0
 24 86  1  0
 25 87  1  0
 25 88  1  0
 25 89  1  0
 28 90  1  1
 30 91  1  6
 32 92  1  1
 34 93  1  0
 35 94  1  0
 35 95  1  0
 37 96  1  0
 37 97  1  0
 38 98  1  0
 39 99  1  1
 41100  1  0
 41101  1  0
 42102  1  0
 43103  1  0
 44104  1  0
 45105  1  0
 46106  1  0
 46107  1  0
 46108  1  0
 49109  1  1
 51110  1  1
 53111  1  6
 56112  1  0
 57113  1  0
 57114  1  0
 58115  1  0
 58116  1  0
 59117  1  0
 60118  1  1
 62119  1  0
 62120  1  0
 63121  1  0
 64122  1  0
 65123  1  0
 65124  1  0
 65125  1  0
 66126  1  0
 68127  1  0
 68128  1  0
 68129  1  0
M  END
> <Uni-Dock RESULT> 
ENERGY=   -5.392  LOWER_BOUND=    2.945  UPPER_BOUND=    5.311
INTER + INTRA:          -5.392
INTER:                  -5.392
INTRA:                   0.000
UNBOUND:                 0.000

$$$$

     RDKit          3D

129139  0  0  0  0  0  0  0  0999 V2000
   49.0418    6.9361   19.0965 C   0  0  0  0  0  0  0  0  0  0  0  0
   49.9072    5.9832   18.4967 C   0  0  0  0  0  0  0  0  0  0  0  0
   48.4791    6.8291   20.3942 C   0  0  0  0  0  0  0  0  0  0  0  0
   48.7181    8.0791   18.3331 C   0  0  0  0  0  0  0  0  0  0  0  0
   47.6501    7.8258   20.9257 C   0  0  0  0  0  0  0  0  0  0  0  0
   47.3606    8.9663   20.1595 C   0  0  0  0  0  0  0  0  0  0  0  0
   47.8882    9.0784   18.8702 C   0  0  0  0  0  0  0  0  0  0  0  0
   50.3689    6.1125   17.2230 N   0  0  0  0  0  0  0  0  0  0  0  0
   54.0564    4.1384   18.5950 C   0  0  0  0  0  0  0  0  0  0  0  0
   50.3313    4.7244   19.2382 C   0  0  0  0  0  0  0  0  0  0  0  0
   54.0419    2.8859   17.9541 C   0  0  0  0  0  0  0  0  0  0  0  0
   52.8542    4.7188   19.0154 C   0  0  0  0  0  0  0  0  0  0  0  0
   51.6250    4.0838   18.7732 C   0  0  0  0  0  0  0  0  0  0  0  0
   52.8165    2.2596   17.7012 C   0  0  0  0  0  0  0  0  0  0  0  0
   51.6178    2.8562   18.1039 C   0  0  0  0  0  0  0  0  0  0  0  0
   50.0276    7.2123   16.5306 C   0  0  0  0  0  0  0  0  0  0  0  0
   47.0828    7.7815   22.1754 O   0  0  0  0  0  0  0  0  0  0  0  0
   46.5468    9.9017   20.7493 O   0  0  0  0  0  0  0  0  0  0  0  0
   55.2887    4.7075   18.8098 O   0  0  0  0  0  0  0  0  0  0  0  0
   55.2655    2.3736   17.5980 O   0  0  0  0  0  0  0  0  0  0  0  0
   49.2235    8.2115   17.0374 C   0  0  0  0  0  0  0  0  0  0  0  0
   47.3383    6.6440   22.9856 C   0  0  0  0  0  0  0  0  0  0  0  0
   55.3102    6.1250   18.9204 C   0  0  0  0  0  0  0  0  0  0  0  0
   46.3690   11.1402   20.0773 C   0  0  0  0  0  0  0  0  0  0  0  0
   55.2969    1.0455   17.0963 C   0  0  0  0  0  0  0  0  0  0  0  0
   50.2366    5.1236   18.7398 C   0  0  2  0  0  0  0  0  0  0  0  0
   50.3063    6.2092   19.7634 C   0  0  0  0  0  0  0  0  0  0  0  0
   50.5816    5.7055   17.3620 C   0  0  2  0  0  0  0  0  0  0  0  0
   49.3148    6.0535   20.7072 C   0  0  0  0  0  0  0  0  0  0  0  0
   48.7753    4.7037   18.9965 C   0  0  1  0  0  0  0  0  0  0  0  0
   48.4658    5.0183   20.4045 O   0  0  0  0  0  0  0  0  0  0  0  0
   52.0091    6.3334   17.4936 C   0  0  1  0  0  0  0  0  0  0  0  0
   51.1704    7.2896   19.7523 C   0  0  0  0  0  0  0  0  0  0  0  0
   49.5145    6.6402   16.8477 C   0  0  0  0  0  0  0  0  0  0  0  0
   52.0559    7.4945   18.5508 C   0  0  0  0  0  0  0  0  0  0  0  0
   52.9549    5.2079   17.7295 N   0  0  0  0  0  0  0  0  0  0  0  0
   51.2450    4.0123   19.0944 C   0  0  0  0  0  0  0  0  0  0  0  0
   48.2240    6.4814   17.1794 C   0  0  0  0  0  0  0  0  0  0  0  0
   47.7228    5.3745   18.0621 C   0  0  2  0  0  0  0  0  0  0  0  0
   49.2151    6.9295   21.7647 C   0  0  0  0  0  0  0  0  0  0  0  0
   52.7024    4.4841   18.9814 C   0  0  0  0  0  0  0  0  0  0  0  0
   51.0795    8.1878   20.8179 C   0  0  0  0  0  0  0  0  0  0  0  0
   50.1164    7.9973   21.8321 C   0  0  0  0  0  0  0  0  0  0  0  0
   48.2338    6.7634   22.6924 O   0  0  0  0  0  0  0  0  0  0  0  0
   46.6001    5.8774   18.7864 O   0  0  0  0  0  0  0  0  0  0  0  0
   54.3569    5.6009   17.6184 C   0  0  0  0  0  0  0  0  0  0  0  0
   49.7327    6.0795   18.3618 C   0  0  2  0  0  0  0  0  0  0  0  0
   51.1764    5.9727   18.7605 C   0  0  0  0  0  0  0  0  0  0  0  0
   48.8877    6.1375   19.6413 C   0  0  2  0  0  0  0  0  0  0  0  0
   51.8630    5.1496   17.8906 C   0  0  0  0  0  0  0  0  0  0  0  0
   49.6804    4.7921   17.5085 C   0  0  1  0  0  0  0  0  0  0  0  0
   51.0279    4.5623   16.9729 O   0  0  0  0  0  0  0  0  0  0  0  0
   49.4159    7.3738   20.4513 C   0  0  2  0  0  0  0  0  0  0  0  0
   49.3787    8.6362   19.6644 N   0  0  0  0  0  0  0  0  0  0  0  0
   51.7675    6.5244   19.8839 C   0  0  0  0  0  0  0  0  0  0  0  0
   48.8966    4.8289   20.3969 C   0  0  0  0  0  0  0  0  0  0  0  0
   50.8936    7.1793   20.9202 C   0  0  0  0  0  0  0  0  0  0  0  0
   49.5271    7.3640   17.5207 C   0  0  0  0  0  0  0  0  0  0  0  0
   49.0245    3.6534   19.7616 C   0  0  0  0  0  0  0  0  0  0  0  0
   49.1161    3.5444   18.2606 C   0  0  2  0  0  0  0  0  0  0  0  0
   53.2258    4.9426   18.0184 C   0  0  0  0  0  0  0  0  0  0  0  0
   48.8468    8.4933   18.3107 C   0  0  0  0  0  0  0  0  0  0  0  0
   53.1380    6.3210   20.0458 C   0  0  0  0  0  0  0  0  0  0  0  0
   53.8648    5.5561   19.1068 C   0  0  0  0  0  0  0  0  0  0  0  0
   48.7182    9.7180   20.3885 C   0  0  0  0  0  0  0  0  0  0  0  0
   49.8024    2.3511   17.8955 O   0  0  0  0  0  0  0  0  0  0  0  0
   53.8182    4.1424   17.0849 O   0  0  0  0  0  0  0  0  0  0  0  0
   55.2208    3.9527   17.1937 C   0  0  0  0  0  0  0  0  0  0  0  0
   48.6941    5.9471   20.9863 H   0  0  0  0  0  0  0  0  0  0  0  0
   47.6580    9.9437   18.2556 H   0  0  0  0  0  0  0  0  0  0  0  0
   49.5094    4.0002   19.1728 H   0  0  0  0  0  0  0  0  0  0  0  0
   50.4741    4.9430   20.3029 H   0  0  0  0  0  0  0  0  0  0  0  0
   52.8499    5.6701   19.5381 H   0  0  0  0  0  0  0  0  0  0  0  0
   52.7587    1.3092   17.1822 H   0  0  0  0  0  0  0  0  0  0  0  0
   50.6779    2.3549   17.8857 H   0  0  0  0  0  0  0  0  0  0  0  0
   50.4326    7.2703   15.5245 H   0  0  0  0  0  0  0  0  0  0  0  0
   48.9939    9.0742   16.4208 H   0  0  0  0  0  0  0  0  0  0  0  0
   46.8102    6.7834   23.9337 H   0  0  0  0  0  0  0  0  0  0  0  0
   48.4060    6.5511   23.2114 H   0  0  0  0  0  0  0  0  0  0  0  0
   46.9500    5.7321   22.5200 H   0  0  0  0  0  0  0  0  0  0  0  0
   54.7357    6.6039   18.1193 H   0  0  0  0  0  0  0  0  0  0  0  0
   54.9523    6.4424   19.9051 H   0  0  0  0  0  0  0  0  0  0  0  0
   56.3499    6.4519   18.8246 H   0  0  0  0  0  0  0  0  0  0  0  0
   47.3273   11.6408   19.9059 H   0  0  0  0  0  0  0  0  0  0  0  0
   45.7672   11.7868   20.7230 H   0  0  0  0  0  0  0  0  0  0  0  0
   45.8200   11.0031   19.1401 H   0  0  0  0  0  0  0  0  0  0  0  0
   56.3458    0.7632   16.9664 H   0  0  0  0  0  0  0  0  0  0  0  0
   54.8492    0.3400   17.8042 H   0  0  0  0  0  0  0  0  0  0  0  0
   54.8119    0.9856   16.1165 H   0  0  0  0  0  0  0  0  0  0  0  0
   50.6353    4.8912   16.6233 H   0  0  0  0  0  0  0  0  0  0  0  0
   48.6634    3.6164   18.8986 H   0  0  0  0  0  0  0  0  0  0  0  0
   52.2721    6.7691   16.5198 H   0  0  0  0  0  0  0  0  0  0  0  0
   49.8010    7.4292   16.1573 H   0  0  0  0  0  0  0  0  0  0  0  0
   51.7098    8.4083   18.0489 H   0  0  0  0  0  0  0  0  0  0  0  0
   53.0809    7.6929   18.8789 H   0  0  0  0  0  0  0  0  0  0  0  0
   51.0937    3.1670   18.4095 H   0  0  0  0  0  0  0  0  0  0  0  0
   51.0761    3.6257   20.1079 H   0  0  0  0  0  0  0  0  0  0  0  0
   47.4751    7.1497   16.7606 H   0  0  0  0  0  0  0  0  0  0  0  0
   47.3297    4.6020   17.3899 H   0  0  0  0  0  0  0  0  0  0  0  0
   53.3445    3.5957   19.0261 H   0  0  0  0  0  0  0  0  0  0  0  0
   52.9678    5.0970   19.8511 H   0  0  0  0  0  0  0  0  0  0  0  0
   51.7338    9.0560   20.8593 H   0  0  0  0  0  0  0  0  0  0  0  0
   50.0639    8.7185   22.6429 H   0  0  0  0  0  0  0  0  0  0  0  0
   48.3170    7.4594   23.3635 H   0  0  0  0  0  0  0  0  0  0  0  0
   46.8399    5.8261   19.7340 H   0  0  0  0  0  0  0  0  0  0  0  0
   54.5447    6.1044   16.6640 H   0  0  0  0  0  0  0  0  0  0  0  0
   54.6797    6.2607   18.4291 H   0  0  0  0  0  0  0  0  0  0  0  0
   54.9999    4.7138   17.6331 H   0  0  0  0  0  0  0  0  0  0  0  0
   47.8326    6.3141   19.3876 H   0  0  0  0  0  0  0  0  0  0  0  0
   49.0422    4.9388   16.6277 H   0  0  0  0  0  0  0  0  0  0  0  0
   48.7908    7.4784   21.3492 H   0  0  0  0  0  0  0  0  0  0  0  0
   48.7695    4.8503   21.4760 H   0  0  0  0  0  0  0  0  0  0  0  0
   51.3322    8.1364   21.2287 H   0  0  0  0  0  0  0  0  0  0  0  0
   50.8893    6.5339   21.8082 H   0  0  0  0  0  0  0  0  0  0  0  0
   50.4777    7.7319   17.1127 H   0  0  0  0  0  0  0  0  0  0  0  0
   48.8854    7.1514   16.6567 H   0  0  0  0  0  0  0  0  0  0  0  0
   48.9949    2.7378   20.3449 H   0  0  0  0  0  0  0  0  0  0  0  0
   48.0812    3.4058   17.9188 H   0  0  0  0  0  0  0  0  0  0  0  0
   48.9875    9.4280   17.7535 H   0  0  0  0  0  0  0  0  0  0  0  0
   47.7635    8.3145   18.3403 H   0  0  0  0  0  0  0  0  0  0  0  0
   53.6537    6.7329   20.9097 H   0  0  0  0  0  0  0  0  0  0  0  0
   54.9293    5.4311   19.2791 H   0  0  0  0  0  0  0  0  0  0  0  0
   48.8150   10.6633   19.8431 H   0  0  0  0  0  0  0  0  0  0  0  0
   47.6527    9.5148   20.5425 H   0  0  0  0  0  0  0  0  0  0  0  0
   49.1870    9.8721   21.3667 H   0  0  0  0  0  0  0  0  0  0  0  0
   49.5389    1.6421   18.5006 H   0  0  0  0  0  0  0  0  0  0  0  0
   55.7570    4.9028   17.0971 H   0  0  0  0  0  0  0  0  0  0  0  0
   55.5362    3.3076   16.3680 H   0  0  0  0  0  0  0  0  0  0  0  0
   55.4802    3.4457   18.1292 H   0  0  0  0  0  0  0  0  0  0  0  0
  2  1  1  0
  3  1  2  0
  4  1  1  0
  5  3  1  0
  6  7  1  0
  7  4  2  0
  8  2  2  0
  9 12  2  0
 10  2  1  0
 11 14  2  0
 12 13  1  0
 13 10  1  0
 14 15  1  0
 15 13  2  0
 16 21  2  0
 17  5  1  0
 18  6  1  0
 19  9  1  0
 20 11  1  0
 21  4  1  0
 22 17  1  0
 23 19  1  0
 24 18  1  0
 25 20  1  0
 16  8  1  0
  6  5  2  0
 11  9  1  0
 27 26  1  0
 28 26  1  0
 29 27  2  0
 30 26  1  0
 30 31  1  0
 32 28  1  0
 33 27  1  0
 28 34  1  0
 32 35  1  0
 36 41  1  0
 26 37  1  6
 38 39  1  0
 39 30  1  0
 40 29  1  0
 41 37  1  0
 42 33  2  0
 43 42  1  0
 44 40  1  0
 39 45  1  0
 46 36  1  0
 29 31  1  0
 32 36  1  0
 38 34  2  0
 35 33  1  0
 43 40  2  0
 48 47  1  0
 49 47  1  0
 50 48  2  0
 51 47  1  0
 52 51  1  0
 53 49  1  0
 54 62  1  0
 55 48  1  0
 49 56  1  0
 53 57  1  0
 47 58  1  1
 59 60  1  0
 60 51  1  0
 61 50  1  0
 62 58  1  0
 63 55  2  0
 64 63  1  0
 65 54  1  0
 60 66  1  0
 67 61  1  0
 68 67  1  0
 52 50  1  0
 53 54  1  0
 59 56  2  0
 57 55  1  0
 64 61  2  0
  3 69  1  0
  7 70  1  0
 10 71  1  0
 10 72  1  0
 12 73  1  0
 14 74  1  0
 15 75  1  0
 16 76  1  0
 21 77  1  0
 22 78  1  0
 22 79  1  0
 22 80  1  0
 23 81  1  0
 23 82  1  0
 23 83  1  0
 24 84  1  0
 24 85  1  0
 24 86  1  0
 25 87  1  0
 25 88  1  0
 25 89  1  0
 28 90  1  1
 30 91  1  6
 32 92  1  1
 34 93  1  0
 35 94  1  0
 35 95  1  0
 37 96  1  0
 37 97  1  0
 38 98  1  0
 39 99  1  1
 41100  1  0
 41101  1  0
 42102  1  0
 43103  1  0
 44104  1  0
 45105  1  0
 46106  1  0
 46107  1  0
 46108  1  0
 49109  1  1
 51110  1  1
 53111  1  6
 56112  1  0
 57113  1  0
 57114  1  0
 58115  1  0
 58116  1  0
 59117  1  0
 60118  1  1
 62119  1  0
 62120  1  0
 63121  1  0
 64122  1  0
 65123  1  0
 65124  1  0
 65125  1  0
 66126  1  0
 68127  1  0
 68128  1  0
 68129  1  0
M  END
> <Uni-Dock RESULT> 
ENERGY=   -5.315  LOWER_BOUND=    3.708  UPPER_BOUND=    6.949
INTER + INTRA:          -5.315
INTER:                  -5.315
INTRA:                   0.000
UNBOUND:                 0.000

$$$$

     RDKit          3D

129139  0  0  0  0  0  0  0  0999 V2000
   49.1181   11.9934   20.2630 C   0  0  0  0  0  0  0  0  0  0  0  0
   48.5732   10.7865   19.7501 C   0  0  0  0  0  0  0  0  0  0  0  0
   50.0923   12.0809   21.2904 C   0  0  0  0  0  0  0  0  0  0  0  0
   48.6462   13.2002   19.7017 C   0  0  0  0  0  0  0  0  0  0  0  0
   50.5988   13.3122   21.7269 C   0  0  0  0  0  0  0  0  0  0  0  0
   50.1342   14.4993   21.1383 C   0  0  0  0  0  0  0  0  0  0  0  0
   49.1583   14.4337   20.1401 C   0  0  0  0  0  0  0  0  0  0  0  0
   47.5959   10.7682   18.8032 N   0  0  0  0  0  0  0  0  0  0  0  0
   49.4285    7.0587   17.3003 C   0  0  0  0  0  0  0  0  0  0  0  0
   49.0237    9.4310   20.2738 C   0  0  0  0  0  0  0  0  0  0  0  0
   48.4893    6.0563   17.6050 C   0  0  0  0  0  0  0  0  0  0  0  0
   49.6012    8.1388   18.1736 C   0  0  0  0  0  0  0  0  0  0  0  0
   48.8218    8.2563   19.3361 C   0  0  0  0  0  0  0  0  0  0  0  0
   47.7038    6.1802   18.7563 C   0  0  0  0  0  0  0  0  0  0  0  0
   47.8661    7.2738   19.6123 C   0  0  0  0  0  0  0  0  0  0  0  0
   47.1708   11.9411   18.3041 C   0  0  0  0  0  0  0  0  0  0  0  0
   51.5456   13.4596   22.7105 O   0  0  0  0  0  0  0  0  0  0  0  0
   50.6812   15.6655   21.6137 O   0  0  0  0  0  0  0  0  0  0  0  0
   50.1654    6.8860   16.1534 O   0  0  0  0  0  0  0  0  0  0  0  0
   48.4007    5.0175   16.7109 O   0  0  0  0  0  0  0  0  0  0  0  0
   47.6634   13.1638   18.7095 C   0  0  0  0  0  0  0  0  0  0  0  0
   52.0404   12.2887   23.3429 C   0  0  0  0  0  0  0  0  0  0  0  0
   50.6715    8.0714   15.5528 C   0  0  0  0  0  0  0  0  0  0  0  0
   50.3644   16.8699   20.9311 C   0  0  0  0  0  0  0  0  0  0  0  0
   47.5810    3.9148   17.0695 C   0  0  0  0  0  0  0  0  0  0  0  0
   48.6541    9.8632   19.9683 C   0  0  2  0  0  0  0  0  0  0  0  0
   49.9109   10.6618   19.8503 C   0  0  0  0  0  0  0  0  0  0  0  0
   47.6734   10.2996   18.8711 C   0  0  2  0  0  0  0  0  0  0  0  0
   50.4171   10.9607   21.0962 C   0  0  0  0  0  0  0  0  0  0  0  0
   48.3164   10.2406   21.4247 C   0  0  1  0  0  0  0  0  0  0  0  0
   49.5879   10.5460   22.1084 O   0  0  0  0  0  0  0  0  0  0  0  0
   48.4119   10.0830   17.5083 C   0  0  1  0  0  0  0  0  0  0  0  0
   50.4726   11.1344   18.6776 C   0  0  0  0  0  0  0  0  0  0  0  0
   47.1389   11.6925   19.0968 C   0  0  0  0  0  0  0  0  0  0  0  0
   49.7133   10.9547   17.3888 C   0  0  0  0  0  0  0  0  0  0  0  0
   48.6023    8.6148   17.3499 N   0  0  0  0  0  0  0  0  0  0  0  0
   48.9757    8.3643   19.8023 C   0  0  0  0  0  0  0  0  0  0  0  0
   46.9957   12.1970   20.3319 C   0  0  0  0  0  0  0  0  0  0  0  0
   47.3306   11.4380   21.5839 C   0  0  2  0  0  0  0  0  0  0  0  0
   51.5932   11.6657   21.2201 C   0  0  0  0  0  0  0  0  0  0  0  0
   49.4573    8.0206   18.3848 C   0  0  0  0  0  0  0  0  0  0  0  0
   51.6650   11.8532   18.7880 C   0  0  0  0  0  0  0  0  0  0  0  0
   52.2342   12.1016   20.0556 C   0  0  0  0  0  0  0  0  0  0  0  0
   52.0850   11.9520   22.4560 O   0  0  0  0  0  0  0  0  0  0  0  0
   47.7822   12.3843   22.5524 O   0  0  0  0  0  0  0  0  0  0  0  0
   49.0462    8.2326   16.0123 C   0  0  0  0  0  0  0  0  0  0  0  0
   48.4238   10.9706   19.7913 C   0  0  2  0  0  0  0  0  0  0  0  0
   49.2030   10.0971   18.8508 C   0  0  0  0  0  0  0  0  0  0  0  0
   49.3405   11.3463   20.9631 C   0  0  2  0  0  0  0  0  0  0  0  0
   48.3940    9.1168   18.3124 C   0  0  0  0  0  0  0  0  0  0  0  0
   47.2703    9.9764   20.0547 C   0  0  1  0  0  0  0  0  0  0  0  0
   47.1365    9.1295   18.8630 O   0  0  0  0  0  0  0  0  0  0  0  0
   50.5876   12.0542   20.3253 C   0  0  2  0  0  0  0  0  0  0  0  0
   50.2168   13.2161   19.4729 N   0  0  0  0  0  0  0  0  0  0  0  0
   50.5616   10.1625   18.5947 C   0  0  0  0  0  0  0  0  0  0  0  0
   49.6611   10.1624   21.8457 C   0  0  0  0  0  0  0  0  0  0  0  0
   51.4164   11.0823   19.4254 C   0  0  0  0  0  0  0  0  0  0  0  0
   47.9577   12.2433   19.0412 C   0  0  0  0  0  0  0  0  0  0  0  0
   48.7928    9.1511   22.0050 C   0  0  0  0  0  0  0  0  0  0  0  0
   47.4273    9.1416   21.3658 C   0  0  2  0  0  0  0  0  0  0  0  0
   48.8739    8.2236   17.3699 C   0  0  0  0  0  0  0  0  0  0  0  0
   48.7824   13.4879   19.4062 C   0  0  0  0  0  0  0  0  0  0  0  0
   51.0759    9.2655   17.6585 C   0  0  0  0  0  0  0  0  0  0  0  0
   50.2330    8.3198   17.0338 C   0  0  0  0  0  0  0  0  0  0  0  0
   50.9743   14.4158   19.8162 C   0  0  0  0  0  0  0  0  0  0  0  0
   46.9724    7.8025   21.1984 O   0  0  0  0  0  0  0  0  0  0  0  0
   47.9844    7.3170   16.8703 O   0  0  0  0  0  0  0  0  0  0  0  0
   48.4642    6.4195   15.8807 C   0  0  0  0  0  0  0  0  0  0  0  0
   50.4483   11.1674   21.7526 H   0  0  0  0  0  0  0  0  0  0  0  0
   48.7724   15.3426   19.6883 H   0  0  0  0  0  0  0  0  0  0  0  0
   48.5059    9.2463   21.2235 H   0  0  0  0  0  0  0  0  0  0  0  0
   50.0964    9.4504   20.4989 H   0  0  0  0  0  0  0  0  0  0  0  0
   50.3424    8.9050   17.9690 H   0  0  0  0  0  0  0  0  0  0  0  0
   46.9470    5.4465   19.0114 H   0  0  0  0  0  0  0  0  0  0  0  0
   47.2358    7.3530   20.4947 H   0  0  0  0  0  0  0  0  0  0  0  0
   46.3989   11.8683   17.5436 H   0  0  0  0  0  0  0  0  0  0  0  0
   47.2750   14.0704   18.2576 H   0  0  0  0  0  0  0  0  0  0  0  0
   52.7771   12.5984   24.0903 H   0  0  0  0  0  0  0  0  0  0  0  0
   52.5500   11.6370   22.6253 H   0  0  0  0  0  0  0  0  0  0  0  0
   51.2405   11.7545   23.8664 H   0  0  0  0  0  0  0  0  0  0  0  0
   49.9008    8.8462   15.4705 H   0  0  0  0  0  0  0  0  0  0  0  0
   51.5443    8.4412   16.1005 H   0  0  0  0  0  0  0  0  0  0  0  0
   50.9985    7.8193   14.5396 H   0  0  0  0  0  0  0  0  0  0  0  0
   50.6464   16.8144   19.8748 H   0  0  0  0  0  0  0  0  0  0  0  0
   50.9464   17.6758   21.3885 H   0  0  0  0  0  0  0  0  0  0  0  0
   49.3046   17.1193   21.0460 H   0  0  0  0  0  0  0  0  0  0  0  0
   47.7084    3.1425   16.3052 H   0  0  0  0  0  0  0  0  0  0  0  0
   47.8866    3.4848   18.0291 H   0  0  0  0  0  0  0  0  0  0  0  0
   46.5240    4.2004   17.0816 H   0  0  0  0  0  0  0  0  0  0  0  0
   46.7900    9.6432   18.8870 H   0  0  0  0  0  0  0  0  0  0  0  0
   47.8868    9.3819   21.9561 H   0  0  0  0  0  0  0  0  0  0  0  0
   47.7315   10.4023   16.7067 H   0  0  0  0  0  0  0  0  0  0  0  0
   46.8227   12.2756   18.2358 H   0  0  0  0  0  0  0  0  0  0  0  0
   49.4075   11.9553   17.0540 H   0  0  0  0  0  0  0  0  0  0  0  0
   50.3846   10.5641   16.6179 H   0  0  0  0  0  0  0  0  0  0  0  0
   48.0688    7.7830   20.0174 H   0  0  0  0  0  0  0  0  0  0  0  0
   49.7350    8.0346   20.5233 H   0  0  0  0  0  0  0  0  0  0  0  0
   46.5715   13.1901   20.4612 H   0  0  0  0  0  0  0  0  0  0  0  0
   46.3809   11.0427   21.9647 H   0  0  0  0  0  0  0  0  0  0  0  0
   49.4467    6.9283   18.2851 H   0  0  0  0  0  0  0  0  0  0  0  0
   50.5018    8.3290   18.2573 H   0  0  0  0  0  0  0  0  0  0  0  0
   52.1497   12.2494   17.8981 H   0  0  0  0  0  0  0  0  0  0  0  0
   53.1572   12.6720   20.1095 H   0  0  0  0  0  0  0  0  0  0  0  0
   52.9162   12.4427   22.3556 H   0  0  0  0  0  0  0  0  0  0  0  0
   48.7026   12.1340   22.7719 H   0  0  0  0  0  0  0  0  0  0  0  0
   48.3793    8.6468   15.2486 H   0  0  0  0  0  0  0  0  0  0  0  0
   50.0683    8.5562   15.7942 H   0  0  0  0  0  0  0  0  0  0  0  0
   49.0091    7.1434   15.8991 H   0  0  0  0  0  0  0  0  0  0  0  0
   48.8329   12.0652   21.6222 H   0  0  0  0  0  0  0  0  0  0  0  0
   46.3139   10.5086   20.1379 H   0  0  0  0  0  0  0  0  0  0  0  0
   51.2390   12.3888   21.1449 H   0  0  0  0  0  0  0  0  0  0  0  0
   50.6078   10.1525   22.3794 H   0  0  0  0  0  0  0  0  0  0  0  0
   52.1020   11.6427   18.7774 H   0  0  0  0  0  0  0  0  0  0  0  0
   52.0399   10.4580   20.0785 H   0  0  0  0  0  0  0  0  0  0  0  0
   47.9852   12.0995   17.9531 H   0  0  0  0  0  0  0  0  0  0  0  0
   46.9145   12.4700   19.2935 H   0  0  0  0  0  0  0  0  0  0  0  0
   49.0558    8.3366   22.6735 H   0  0  0  0  0  0  0  0  0  0  0  0
   46.7573    9.5895   22.1125 H   0  0  0  0  0  0  0  0  0  0  0  0
   48.5830   14.2589   18.6514 H   0  0  0  0  0  0  0  0  0  0  0  0
   48.4234   13.8944   20.3613 H   0  0  0  0  0  0  0  0  0  0  0  0
   52.1362    9.2736   17.4184 H   0  0  0  0  0  0  0  0  0  0  0  0
   50.6840    7.6470   16.3111 H   0  0  0  0  0  0  0  0  0  0  0  0
   50.7750   15.2175   19.0965 H   0  0  0  0  0  0  0  0  0  0  0  0
   50.7269   14.7815   20.8189 H   0  0  0  0  0  0  0  0  0  0  0  0
   52.0514   14.2189   19.7745 H   0  0  0  0  0  0  0  0  0  0  0  0
   47.2408    7.2830   21.9707 H   0  0  0  0  0  0  0  0  0  0  0  0
   48.8100    6.9587   14.9922 H   0  0  0  0  0  0  0  0  0  0  0  0
   47.6304    5.7791   15.5772 H   0  0  0  0  0  0  0  0  0  0  0  0
   49.2515    5.7723   16.2816 H   0  0  0  0  0  0  0  0  0  0  0  0
  2  1  1  0
  3  1  2  0
  4  1  1  0
  5  3  1  0
  6  7  1  0
  7  4  2  0
  8  2  2  0
  9 12  2  0
 10  2  1  0
 11 14  2  0
 12 13  1  0
 13 10  1  0
 14 15  1  0
 15 13  2  0
 16 21  2  0
 17  5  1  0
 18  6  1  0
 19  9  1  0
 20 11  1  0
 21  4  1  0
 22 17  1  0
 23 19  1  0
 24 18  1  0
 25 20  1  0
 16  8  1  0
  6  5  2  0
 11  9  1  0
 27 26  1  0
 28 26  1  0
 29 27  2  0
 30 26  1  0
 30 31  1  0
 32 28  1  0
 33 27  1  0
 28 34  1  0
 32 35  1  0
 36 41  1  0
 26 37  1  6
 38 39  1  0
 39 30  1  0
 40 29  1  0
 41 37  1  0
 42 33  2  0
 43 42  1  0
 44 40  1  0
 39 45  1  0
 46 36  1  0
 29 31  1  0
 32 36  1  0
 38 34  2  0
 35 33  1  0
 43 40  2  0
 48 47  1  0
 49 47  1  0
 50 48  2  0
 51 47  1  0
 52 51  1  0
 53 49  1  0
 54 62  1  0
 55 48  1  0
 49 56  1  0
 53 57  1  0
 47 58  1  1
 59 60  1  0
 60 51  1  0
 61 50  1  0
 62 58  1  0
 63 55  2  0
 64 63  1  0
 65 54  1  0
 60 66  1  0
 67 61  1  0
 68 67  1  0
 52 50  1  0
 53 54  1  0
 59 56  2  0
 57 55  1  0
 64 61  2  0
  3 69  1  0
  7 70  1  0
 10 71  1  0
 10 72  1  0
 12 73  1  0
 14 74  1  0
 15 75  1  0
 16 76  1  0
 21 77  1  0
 22 78  1  0
 22 79  1  0
 22 80  1  0
 23 81  1  0
 23 82  1  0
 23 83  1  0
 24 84  1  0
 24 85  1  0
 24 86  1  0
 25 87  1  0
 25 88  1  0
 25 89  1  0
 28 90  1  1
 30 91  1  6
 32 92  1  1
 34 93  1  0
 35 94  1  0
 35 95  1  0
 37 96  1  0
 37 97  1  0
 38 98  1  0
 39 99  1  1
 41100  1  0
 41101  1  0
 42102  1  0
 43103  1  0
 44104  1  0
 45105  1  0
 46106  1  0
 46107  1  0
 46108  1  0
 49109  1  1
 51110  1  1
 53111  1  6
 56112  1  0
 57113  1  0
 57114  1  0
 58115  1  0
 58116  1  0
 59117  1  0
 60118  1  1
 62119  1  0
 62120  1  0
 63121  1  0
 64122  1  0
 65123  1  0
 65124  1  0
 65125  1  0
 66126  1  0
 68127  1  0
 68128  1  0
 68129  1  0
M  END
> <Uni-Dock RESULT> 
ENERGY=   -5.271  LOWER_BOUND=    1.823  UPPER_BOUND=    3.225
INTER + INTRA:          -5.271
INTER:                  -5.271
INTRA:                   0.000
UNBOUND:                 0.000

$$$$

     RDKit          3D

129139  0  0  0  0  0  0  0  0999 V2000
   44.9557   13.8030    6.7711 C   0  0  0  0  0  0  0  0  0  0  0  0
   46.2661   13.8667    7.3147 C   0  0  0  0  0  0  0  0  0  0  0  0
   44.4210   12.7057    6.0485 C   0  0  0  0  0  0  0  0  0  0  0  0
   44.1238   14.9270    6.9681 C   0  0  0  0  0  0  0  0  0  0  0  0
   43.1068   12.7095    5.5627 C   0  0  0  0  0  0  0  0  0  0  0  0
   42.2881   13.8271    5.7908 C   0  0  0  0  0  0  0  0  0  0  0  0
   42.8050   14.9265    6.4816 C   0  0  0  0  0  0  0  0  0  0  0  0
   46.7433   14.9725    7.9485 N   0  0  0  0  0  0  0  0  0  0  0  0
   49.0589   12.2370   10.5043 C   0  0  0  0  0  0  0  0  0  0  0  0
   47.2375   12.7045    7.1730 C   0  0  0  0  0  0  0  0  0  0  0  0
   50.3974   12.4588   10.1313 C   0  0  0  0  0  0  0  0  0  0  0  0
   48.0471   12.3081    9.5398 C   0  0  0  0  0  0  0  0  0  0  0  0
   48.3451   12.6350    8.2068 C   0  0  0  0  0  0  0  0  0  0  0  0
   50.6926   12.7972    8.8062 C   0  0  0  0  0  0  0  0  0  0  0  0
   49.6737   12.8887    7.8530 C   0  0  0  0  0  0  0  0  0  0  0  0
   45.9191   16.0222    8.1050 C   0  0  0  0  0  0  0  0  0  0  0  0
   42.5325   11.6764    4.8638 O   0  0  0  0  0  0  0  0  0  0  0  0
   41.0116   13.7551    5.2902 O   0  0  0  0  0  0  0  0  0  0  0  0
   48.8302   11.9151   11.8205 O   0  0  0  0  0  0  0  0  0  0  0  0
   51.3317   12.3436   11.1314 O   0  0  0  0  0  0  0  0  0  0  0  0
   44.6188   16.0436    7.6462 C   0  0  0  0  0  0  0  0  0  0  0  0
   43.3231   10.5271    4.5997 C   0  0  0  0  0  0  0  0  0  0  0  0
   47.5386   12.2310   12.3244 C   0  0  0  0  0  0  0  0  0  0  0  0
   40.1039   14.7883    5.6446 C   0  0  0  0  0  0  0  0  0  0  0  0
   52.7003   12.4031   10.7571 C   0  0  0  0  0  0  0  0  0  0  0  0
   47.0358   13.3069    7.2879 C   0  0  2  0  0  0  0  0  0  0  0  0
   45.7232   12.6685    7.6053 C   0  0  0  0  0  0  0  0  0  0  0  0
   47.1154   14.6719    7.9854 C   0  0  2  0  0  0  0  0  0  0  0  0
   45.2364   11.9859    6.5122 C   0  0  0  0  0  0  0  0  0  0  0  0
   46.8963   13.2923    5.7523 C   0  0  1  0  0  0  0  0  0  0  0  0
   46.0204   12.1586    5.3989 O   0  0  0  0  0  0  0  0  0  0  0  0
   46.9205   14.3978    9.5139 C   0  0  1  0  0  0  0  0  0  0  0  0
   45.0166   12.7956    8.7880 C   0  0  0  0  0  0  0  0  0  0  0  0
   46.1651   15.6804    7.3882 C   0  0  0  0  0  0  0  0  0  0  0  0
   45.5223   13.7564    9.8324 C   0  0  0  0  0  0  0  0  0  0  0  0
   48.1057   13.6186    9.9665 N   0  0  0  0  0  0  0  0  0  0  0  0
   48.1836   12.4073    7.7887 C   0  0  0  0  0  0  0  0  0  0  0  0
   45.8159   15.6337    6.0934 C   0  0  0  0  0  0  0  0  0  0  0  0
   46.3359   14.6067    5.1287 C   0  0  2  0  0  0  0  0  0  0  0  0
   44.0489   11.2938    6.5946 C   0  0  0  0  0  0  0  0  0  0  0  0
   48.2241   12.3055    9.3208 C   0  0  0  0  0  0  0  0  0  0  0  0
   43.8090   12.1007    8.8852 C   0  0  0  0  0  0  0  0  0  0  0  0
   43.3358   11.3358    7.7974 C   0  0  0  0  0  0  0  0  0  0  0  0
   43.5800   10.6205    5.5092 O   0  0  0  0  0  0  0  0  0  0  0  0
   45.3061   14.3548    4.1728 O   0  0  0  0  0  0  0  0  0  0  0  0
   48.1997   13.5048   11.4193 C   0  0  0  0  0  0  0  0  0  0  0  0
   46.1792   14.0617    7.2036 C   0  0  2  0  0  0  0  0  0  0  0  0
   46.5446   13.3175    8.4555 C   0  0  0  0  0  0  0  0  0  0  0  0
   45.4236   13.0977    6.2793 C   0  0  2  0  0  0  0  0  0  0  0  0
   47.7859   13.7122    8.9127 C   0  0  0  0  0  0  0  0  0  0  0  0
   47.6144   14.4783    6.8101 C   0  0  1  0  0  0  0  0  0  0  0  0
   48.3984   14.5839    8.0468 O   0  0  0  0  0  0  0  0  0  0  0  0
   44.1860   12.5926    7.1018 C   0  0  2  0  0  0  0  0  0  0  0  0
   43.3389   13.7056    7.6095 N   0  0  0  0  0  0  0  0  0  0  0  0
   45.8196   12.3033    9.0567 C   0  0  0  0  0  0  0  0  0  0  0  0
   46.3149   12.0065    5.7331 C   0  0  0  0  0  0  0  0  0  0  0  0
   44.6137   11.7492    8.3457 C   0  0  0  0  0  0  0  0  0  0  0  0
   45.2837   15.2716    7.5695 C   0  0  0  0  0  0  0  0  0  0  0  0
   47.6239   12.2122    5.5186 C   0  0  0  0  0  0  0  0  0  0  0  0
   48.2884   13.5450    5.7538 C   0  0  2  0  0  0  0  0  0  0  0  0
   48.3147   13.2079   10.0884 C   0  0  0  0  0  0  0  0  0  0  0  0
   43.8013   15.0407    7.2358 C   0  0  0  0  0  0  0  0  0  0  0  0
   46.3351   11.7667   10.2365 C   0  0  0  0  0  0  0  0  0  0  0  0
   47.5612   12.2330   10.7602 C   0  0  0  0  0  0  0  0  0  0  0  0
   41.9281   13.5167    7.2857 C   0  0  0  0  0  0  0  0  0  0  0  0
   49.6759   13.3627    6.0173 O   0  0  0  0  0  0  0  0  0  0  0  0
   49.5317   13.6905   10.4743 O   0  0  0  0  0  0  0  0  0  0  0  0
   50.0635   13.1994   11.6953 C   0  0  0  0  0  0  0  0  0  0  0  0
   45.0519   11.8439    5.8639 H   0  0  0  0  0  0  0  0  0  0  0  0
   42.1928   15.8077    6.6491 H   0  0  0  0  0  0  0  0  0  0  0  0
   47.6677   12.7445    6.1643 H   0  0  0  0  0  0  0  0  0  0  0  0
   46.7004   11.7518    7.2486 H   0  0  0  0  0  0  0  0  0  0  0  0
   47.0132   12.1101    9.8044 H   0  0  0  0  0  0  0  0  0  0  0  0
   51.7066   13.0069    8.4839 H   0  0  0  0  0  0  0  0  0  0  0  0
   49.9275   13.1644    6.8322 H   0  0  0  0  0  0  0  0  0  0  0  0
   46.3468   16.8728    8.6275 H   0  0  0  0  0  0  0  0  0  0  0  0
   44.0098   16.9257    7.8136 H   0  0  0  0  0  0  0  0  0  0  0  0
   42.7057    9.8183    4.0396 H   0  0  0  0  0  0  0  0  0  0  0  0
   43.6306   10.0365    5.5293 H   0  0  0  0  0  0  0  0  0  0  0  0
   44.1888   10.7776    3.9775 H   0  0  0  0  0  0  0  0  0  0  0  0
   47.2377   13.2512   12.0602 H   0  0  0  0  0  0  0  0  0  0  0  0
   46.7990   11.5009   11.9802 H   0  0  0  0  0  0  0  0  0  0  0  0
   47.5816   12.1696   13.4159 H   0  0  0  0  0  0  0  0  0  0  0  0
   39.9966   14.8681    6.7311 H   0  0  0  0  0  0  0  0  0  0  0  0
   39.1244   14.5280    5.2322 H   0  0  0  0  0  0  0  0  0  0  0  0
   40.4059   15.7443    5.2047 H   0  0  0  0  0  0  0  0  0  0  0  0
   53.2988   12.1892   11.6475 H   0  0  0  0  0  0  0  0  0  0  0  0
   52.9425   11.6449   10.0051 H   0  0  0  0  0  0  0  0  0  0  0  0
   52.9676   13.4063   10.4091 H   0  0  0  0  0  0  0  0  0  0  0  0
   48.1199   15.0986    7.8420 H   0  0  0  0  0  0  0  0  0  0  0  0
   47.8643   13.0847    5.2789 H   0  0  0  0  0  0  0  0  0  0  0  0
   46.9607   15.3654   10.0332 H   0  0  0  0  0  0  0  0  0  0  0  0
   45.7962   16.4859    8.0178 H   0  0  0  0  0  0  0  0  0  0  0  0
   44.7931   14.5756    9.8952 H   0  0  0  0  0  0  0  0  0  0  0  0
   45.5222   13.2684   10.8118 H   0  0  0  0  0  0  0  0  0  0  0  0
   49.1373   12.8239    7.4375 H   0  0  0  0  0  0  0  0  0  0  0  0
   48.1126   11.3954    7.3690 H   0  0  0  0  0  0  0  0  0  0  0  0
   45.1589   16.3986    5.6858 H   0  0  0  0  0  0  0  0  0  0  0  0
   47.1510   15.0909    4.5771 H   0  0  0  0  0  0  0  0  0  0  0  0
   49.1806   11.8461    9.5990 H   0  0  0  0  0  0  0  0  0  0  0  0
   47.4427   11.6216    9.6732 H   0  0  0  0  0  0  0  0  0  0  0  0
   43.2115   12.1659    9.7921 H   0  0  0  0  0  0  0  0  0  0  0  0
   42.3882   10.8143    7.9001 H   0  0  0  0  0  0  0  0  0  0  0  0
   42.7442   10.1883    5.7467 H   0  0  0  0  0  0  0  0  0  0  0  0
   45.0786   13.4067    4.2582 H   0  0  0  0  0  0  0  0  0  0  0  0
   48.1510   14.4925   11.8902 H   0  0  0  0  0  0  0  0  0  0  0  0
   47.4143   12.8757   11.8488 H   0  0  0  0  0  0  0  0  0  0  0  0
   49.1661   13.0732   11.7025 H   0  0  0  0  0  0  0  0  0  0  0  0
   45.0555   13.6362    5.3942 H   0  0  0  0  0  0  0  0  0  0  0  0
   47.6187   15.4882    6.3800 H   0  0  0  0  0  0  0  0  0  0  0  0
   43.5898   11.9427    6.4459 H   0  0  0  0  0  0  0  0  0  0  0  0
   45.8702   11.0459    5.4871 H   0  0  0  0  0  0  0  0  0  0  0  0
   43.7790   11.6455    9.0501 H   0  0  0  0  0  0  0  0  0  0  0  0
   44.8650   10.7369    8.0035 H   0  0  0  0  0  0  0  0  0  0  0  0
   45.3772   15.5322    8.6320 H   0  0  0  0  0  0  0  0  0  0  0  0
   45.5998   16.1594    7.0080 H   0  0  0  0  0  0  0  0  0  0  0  0
   48.2175   11.4067    5.0964 H   0  0  0  0  0  0  0  0  0  0  0  0
   48.2375   14.0660    4.7879 H   0  0  0  0  0  0  0  0  0  0  0  0
   43.2132   15.8012    7.7645 H   0  0  0  0  0  0  0  0  0  0  0  0
   43.6382   15.2179    6.1642 H   0  0  0  0  0  0  0  0  0  0  0  0
   45.8061   10.9684   10.7511 H   0  0  0  0  0  0  0  0  0  0  0  0
   47.9156   11.7830   11.6822 H   0  0  0  0  0  0  0  0  0  0  0  0
   41.3138   14.2800    7.7760 H   0  0  0  0  0  0  0  0  0  0  0  0
   41.7470   13.5675    6.2064 H   0  0  0  0  0  0  0  0  0  0  0  0
   41.5731   12.5470    7.6519 H   0  0  0  0  0  0  0  0  0  0  0  0
   50.0112   12.6545    5.4478 H   0  0  0  0  0  0  0  0  0  0  0  0
   49.4090   13.4447   12.5387 H   0  0  0  0  0  0  0  0  0  0  0  0
   51.0243   13.6948   11.8651 H   0  0  0  0  0  0  0  0  0  0  0  0
   50.2504   12.1216   11.6406 H   0  0  0  0  0  0  0  0  0  0  0  0
  2  1  1  0
  3  1  2  0
  4  1  1  0
  5  3  1  0
  6  7  1  0
  7  4  2  0
  8  2  2  0
  9 12  2  0
 10  2  1  0
 11 14  2  0
 12 13  1  0
 13 10  1  0
 14 15  1  0
 15 13  2  0
 16 21  2  0
 17  5  1  0
 18  6  1  0
 19  9  1  0
 20 11  1  0
 21  4  1  0
 22 17  1  0
 23 19  1  0
 24 18  1  0
 25 20  1  0
 16  8  1  0
  6  5  2  0
 11  9  1  0
 27 26  1  0
 28 26  1  0
 29 27  2  0
 30 26  1  0
 30 31  1  0
 32 28  1  0
 33 27  1  0
 28 34  1  0
 32 35  1  0
 36 41  1  0
 26 37  1  6
 38 39  1  0
 39 30  1  0
 40 29  1  0
 41 37  1  0
 42 33  2  0
 43 42  1  0
 44 40  1  0
 39 45  1  0
 46 36  1  0
 29 31  1  0
 32 36  1  0
 38 34  2  0
 35 33  1  0
 43 40  2  0
 48 47  1  0
 49 47  1  0
 50 48  2  0
 51 47  1  0
 52 51  1  0
 53 49  1  0
 54 62  1  0
 55 48  1  0
 49 56  1  0
 53 57  1  0
 47 58  1  1
 59 60  1  0
 60 51  1  0
 61 50  1  0
 62 58  1  0
 63 55  2  0
 64 63  1  0
 65 54  1  0
 60 66  1  0
 67 61  1  0
 68 67  1  0
 52 50  1  0
 53 54  1  0
 59 56  2  0
 57 55  1  0
 64 61  2  0
  3 69  1  0
  7 70  1  0
 10 71  1  0
 10 72  1  0
 12 73  1  0
 14 74  1  0
 15 75  1  0
 16 76  1  0
 21 77  1  0
 22 78  1  0
 22 79  1  0
 22 80  1  0
 23 81  1  0
 23 82  1  0
 23 83  1  0
 24 84  1  0
 24 85  1  0
 24 86  1  0
 25 87  1  0
 25 88  1  0
 25 89  1  0
 28 90  1  1
 30 91  1  6
 32 92  1  1
 34 93  1  0
 35 94  1  0
 35 95  1  0
 37 96  1  0
 37 97  1  0
 38 98  1  0
 39 99  1  1
 41100  1  0
 41101  1  0
 42102  1  0
 43103  1  0
 44104  1  0
 45105  1  0
 46106  1  0
 46107  1  0
 46108  1  0
 49109  1  1
 51110  1  1
 53111  1  6
 56112  1  0
 57113  1  0
 57114  1  0
 58115  1  0
 58116  1  0
 59117  1  0
 60118  1  1
 62119  1  0
 62120  1  0
 63121  1  0
 64122  1  0
 65123  1  0
 65124  1  0
 65125  1  0
 66126  1  0
 68127  1  0
 68128  1  0
 68129  1  0
M  END
> <Uni-Dock RESULT> 
ENERGY=   -5.265  LOWER_BOUND=    9.535  UPPER_BOUND=   13.587
INTER + INTRA:          -5.265
INTER:                  -5.265
INTRA:                   0.000
UNBOUND:                 0.000

$$$$

     RDKit          3D

129139  0  0  0  0  0  0  0  0999 V2000
   49.8910    6.4421   19.8746 C   0  0  0  0  0  0  0  0  0  0  0  0
   50.3749    6.4990   18.5406 C   0  0  0  0  0  0  0  0  0  0  0  0
   50.0859    7.4437   20.8601 C   0  0  0  0  0  0  0  0  0  0  0  0
   49.1593    5.2921   20.2434 C   0  0  0  0  0  0  0  0  0  0  0  0
   49.5555    7.3242   22.1514 C   0  0  0  0  0  0  0  0  0  0  0  0
   48.8098    6.1838   22.4902 C   0  0  0  0  0  0  0  0  0  0  0  0
   48.6264    5.1765   21.5390 C   0  0  0  0  0  0  0  0  0  0  0  0
   50.2065    5.4784   17.6562 N   0  0  0  0  0  0  0  0  0  0  0  0
   49.9481    8.5437   14.5075 C   0  0  0  0  0  0  0  0  0  0  0  0
   51.1610    7.6997   18.0359 C   0  0  0  0  0  0  0  0  0  0  0  0
   51.1227    8.3696   13.7526 C   0  0  0  0  0  0  0  0  0  0  0  0
   49.9732    8.3354   15.8913 C   0  0  0  0  0  0  0  0  0  0  0  0
   51.1496    7.9177   16.5351 C   0  0  0  0  0  0  0  0  0  0  0  0
   52.2911    7.9409   14.3920 C   0  0  0  0  0  0  0  0  0  0  0  0
   52.3027    7.7128   15.7714 C   0  0  0  0  0  0  0  0  0  0  0  0
   49.5113    4.3994   18.0538 C   0  0  0  0  0  0  0  0  0  0  0  0
   49.7046    8.2615   23.1437 O   0  0  0  0  0  0  0  0  0  0  0  0
   48.3174    6.1407   23.7712 O   0  0  0  0  0  0  0  0  0  0  0  0
   48.8309    8.9591   13.8237 O   0  0  0  0  0  0  0  0  0  0  0  0
   51.0199    8.6203   12.4061 O   0  0  0  0  0  0  0  0  0  0  0  0
   48.9700    4.2655   19.3151 C   0  0  0  0  0  0  0  0  0  0  0  0
   50.4585    9.4289   22.8528 C   0  0  0  0  0  0  0  0  0  0  0  0
   47.5798    8.6117   14.4035 C   0  0  0  0  0  0  0  0  0  0  0  0
   47.4204    5.0895   24.0990 C   0  0  0  0  0  0  0  0  0  0  0  0
   52.2193    8.6091   11.6460 C   0  0  0  0  0  0  0  0  0  0  0  0
   50.9270    7.0981   18.0479 C   0  0  2  0  0  0  0  0  0  0  0  0
   49.8199    7.6838   18.8619 C   0  0  0  0  0  0  0  0  0  0  0  0
   50.4374    5.8020   17.3875 C   0  0  2  0  0  0  0  0  0  0  0  0
   50.3110    8.2450   20.0203 C   0  0  0  0  0  0  0  0  0  0  0  0
   51.9642    6.9784   19.1826 C   0  0  1  0  0  0  0  0  0  0  0  0
   51.6573    8.0268   20.1745 O   0  0  0  0  0  0  0  0  0  0  0  0
   49.1855    6.1891   16.5316 C   0  0  1  0  0  0  0  0  0  0  0  0
   48.4683    7.6138   18.5749 C   0  0  0  0  0  0  0  0  0  0  0  0
   50.2131    4.6947   18.3877 C   0  0  0  0  0  0  0  0  0  0  0  0
   48.0198    6.7729   17.4081 C   0  0  0  0  0  0  0  0  0  0  0  0
   49.6700    7.0700   15.4333 N   0  0  0  0  0  0  0  0  0  0  0  0
   51.3533    8.1006   16.9566 C   0  0  0  0  0  0  0  0  0  0  0  0
   50.9320    4.6146   19.5179 C   0  0  0  0  0  0  0  0  0  0  0  0
   52.0164    5.5870   19.8841 C   0  0  2  0  0  0  0  0  0  0  0  0
   49.4628    8.8719   20.9053 C   0  0  0  0  0  0  0  0  0  0  0  0
   50.2542    8.3301   15.9085 C   0  0  0  0  0  0  0  0  0  0  0  0
   47.5956    8.2436   19.4650 C   0  0  0  0  0  0  0  0  0  0  0  0
   48.0938    8.8880   20.6179 C   0  0  0  0  0  0  0  0  0  0  0  0
   49.9600    9.4255   22.0444 O   0  0  0  0  0  0  0  0  0  0  0  0
   52.0301    5.6997   21.3070 O   0  0  0  0  0  0  0  0  0  0  0  0
   48.6657    7.3081   14.4004 C   0  0  0  0  0  0  0  0  0  0  0  0
   50.3938    6.2909   18.6600 C   0  0  2  0  0  0  0  0  0  0  0  0
   49.7346    7.1553   17.6241 C   0  0  0  0  0  0  0  0  0  0  0  0
   50.5849    7.1305   19.9301 C   0  0  2  0  0  0  0  0  0  0  0  0
   50.2282    6.8717   16.3665 C   0  0  0  0  0  0  0  0  0  0  0  0
   51.6446    5.9268   17.8287 C   0  0  1  0  0  0  0  0  0  0  0  0
   51.2611    5.9686   16.4122 O   0  0  0  0  0  0  0  0  0  0  0  0
   49.1535    7.6293   20.3368 C   0  0  2  0  0  0  0  0  0  0  0  0
   48.1828    6.5148   20.5093 N   0  0  0  0  0  0  0  0  0  0  0  0
   48.8237    8.1720   17.8527 C   0  0  0  0  0  0  0  0  0  0  0  0
   51.6134    8.2226   19.7488 C   0  0  0  0  0  0  0  0  0  0  0  0
   48.5446    8.5953   19.2703 C   0  0  0  0  0  0  0  0  0  0  0  0
   49.4926    5.0655   18.9537 C   0  0  0  0  0  0  0  0  0  0  0  0
   52.6517    8.0758   18.9107 C   0  0  0  0  0  0  0  0  0  0  0  0
   52.8985    6.8073   18.1339 C   0  0  2  0  0  0  0  0  0  0  0  0
   49.7304    7.5007   15.2382 C   0  0  0  0  0  0  0  0  0  0  0  0
   48.7416    5.1824   20.2895 C   0  0  0  0  0  0  0  0  0  0  0  0
   48.3146    8.8326   16.7346 C   0  0  0  0  0  0  0  0  0  0  0  0
   48.7474    8.4824   15.4366 C   0  0  0  0  0  0  0  0  0  0  0  0
   47.4720    6.5948   21.7818 C   0  0  0  0  0  0  0  0  0  0  0  0
   53.6462    7.0904   16.9554 O   0  0  0  0  0  0  0  0  0  0  0  0
   50.2582    7.1223   14.0378 O   0  0  0  0  0  0  0  0  0  0  0  0
   49.7287    7.7420   12.8756 C   0  0  0  0  0  0  0  0  0  0  0  0
   50.6670    8.3223   20.6049 H   0  0  0  0  0  0  0  0  0  0  0  0
   48.0700    4.2783   21.7900 H   0  0  0  0  0  0  0  0  0  0  0  0
   52.1941    7.6018   18.3930 H   0  0  0  0  0  0  0  0  0  0  0  0
   50.7631    8.6228   18.4732 H   0  0  0  0  0  0  0  0  0  0  0  0
   49.0838    8.4945   16.4928 H   0  0  0  0  0  0  0  0  0  0  0  0
   53.2093    7.7643   13.8426 H   0  0  0  0  0  0  0  0  0  0  0  0
   53.2202    7.3692   16.2431 H   0  0  0  0  0  0  0  0  0  0  0  0
   49.3970    3.6207   17.3055 H   0  0  0  0  0  0  0  0  0  0  0  0
   48.4159    3.3664   19.5637 H   0  0  0  0  0  0  0  0  0  0  0  0
   50.4693   10.0525   23.7518 H   0  0  0  0  0  0  0  0  0  0  0  0
   49.9921   10.0112   22.0510 H   0  0  0  0  0  0  0  0  0  0  0  0
   51.4965    9.1784   22.6097 H   0  0  0  0  0  0  0  0  0  0  0  0
   47.5489    7.5576   14.7019 H   0  0  0  0  0  0  0  0  0  0  0  0
   47.3494    9.2672   15.2495 H   0  0  0  0  0  0  0  0  0  0  0  0
   46.8061    8.7650   13.6453 H   0  0  0  0  0  0  0  0  0  0  0  0
   46.5457    5.0933   23.4408 H   0  0  0  0  0  0  0  0  0  0  0  0
   47.0678    5.2582   25.1211 H   0  0  0  0  0  0  0  0  0  0  0  0
   47.9278    4.1197   24.0786 H   0  0  0  0  0  0  0  0  0  0  0  0
   51.9725    8.9297   10.6295 H   0  0  0  0  0  0  0  0  0  0  0  0
   52.9535    9.3157   12.0471 H   0  0  0  0  0  0  0  0  0  0  0  0
   52.6346    7.5978   11.5848 H   0  0  0  0  0  0  0  0  0  0  0  0
   51.2126    5.4236   16.7039 H   0  0  0  0  0  0  0  0  0  0  0  0
   52.9718    7.2018   18.8094 H   0  0  0  0  0  0  0  0  0  0  0  0
   48.8091    5.2715   16.0587 H   0  0  0  0  0  0  0  0  0  0  0  0
   49.4824    3.9238   18.1572 H   0  0  0  0  0  0  0  0  0  0  0  0
   47.4628    5.9210   17.8214 H   0  0  0  0  0  0  0  0  0  0  0  0
   47.3087    7.3390   16.7986 H   0  0  0  0  0  0  0  0  0  0  0  0
   52.2477    7.7122   16.4508 H   0  0  0  0  0  0  0  0  0  0  0  0
   51.6366    9.0688   17.3897 H   0  0  0  0  0  0  0  0  0  0  0  0
   50.7715    3.7821   20.1993 H   0  0  0  0  0  0  0  0  0  0  0  0
   52.9632    5.1069   19.6079 H   0  0  0  0  0  0  0  0  0  0  0  0
   50.7058    8.8653   15.0641 H   0  0  0  0  0  0  0  0  0  0  0  0
   49.4814    8.9945   16.3132 H   0  0  0  0  0  0  0  0  0  0  0  0
   46.5222    8.2189   19.2890 H   0  0  0  0  0  0  0  0  0  0  0  0
   47.3890    9.3606   21.2962 H   0  0  0  0  0  0  0  0  0  0  0  0
   49.2295    9.8269   22.5415 H   0  0  0  0  0  0  0  0  0  0  0  0
   51.8340    6.6370   21.5098 H   0  0  0  0  0  0  0  0  0  0  0  0
   48.2645    6.3613   14.0232 H   0  0  0  0  0  0  0  0  0  0  0  0
   47.8322    7.9241   14.7508 H   0  0  0  0  0  0  0  0  0  0  0  0
   49.1197    7.8165   13.5425 H   0  0  0  0  0  0  0  0  0  0  0  0
   50.9765    6.5007   20.7418 H   0  0  0  0  0  0  0  0  0  0  0  0
   51.9424    4.8869   18.0152 H   0  0  0  0  0  0  0  0  0  0  0  0
   49.2479    8.1876   21.2788 H   0  0  0  0  0  0  0  0  0  0  0  0
   51.5149    9.1325   20.3348 H   0  0  0  0  0  0  0  0  0  0  0  0
   47.4637    8.7084   19.4210 H   0  0  0  0  0  0  0  0  0  0  0  0
   48.9884    9.5889   19.4146 H   0  0  0  0  0  0  0  0  0  0  0  0
   48.7675    4.8991   18.1462 H   0  0  0  0  0  0  0  0  0  0  0  0
   50.1007    4.1543   19.0113 H   0  0  0  0  0  0  0  0  0  0  0  0
   53.3814    8.8767   18.8370 H   0  0  0  0  0  0  0  0  0  0  0  0
   53.5645    6.2067   18.7686 H   0  0  0  0  0  0  0  0  0  0  0  0
   47.9381    4.4353   20.2922 H   0  0  0  0  0  0  0  0  0  0  0  0
   49.4170    4.9086   21.1113 H   0  0  0  0  0  0  0  0  0  0  0  0
   47.5953    9.6387   16.8562 H   0  0  0  0  0  0  0  0  0  0  0  0
   48.3174    9.0264   14.6014 H   0  0  0  0  0  0  0  0  0  0  0  0
   46.6789    5.8403   21.8292 H   0  0  0  0  0  0  0  0  0  0  0  0
   48.1435    6.4451   22.6344 H   0  0  0  0  0  0  0  0  0  0  0  0
   46.9832    7.5692   21.8919 H   0  0  0  0  0  0  0  0  0  0  0  0
   54.3078    7.7675   17.1607 H   0  0  0  0  0  0  0  0  0  0  0  0
   48.6598    7.5296   12.7663 H   0  0  0  0  0  0  0  0  0  0  0  0
   50.2423    7.3185   12.0071 H   0  0  0  0  0  0  0  0  0  0  0  0
   49.9188    8.8206   12.8807 H   0  0  0  0  0  0  0  0  0  0  0  0
  2  1  1  0
  3  1  2  0
  4  1  1  0
  5  3  1  0
  6  7  1  0
  7  4  2  0
  8  2  2  0
  9 12  2  0
 10  2  1  0
 11 14  2  0
 12 13  1  0
 13 10  1  0
 14 15  1  0
 15 13  2  0
 16 21  2  0
 17  5  1  0
 18  6  1  0
 19  9  1  0
 20 11  1  0
 21  4  1  0
 22 17  1  0
 23 19  1  0
 24 18  1  0
 25 20  1  0
 16  8  1  0
  6  5  2  0
 11  9  1  0
 27 26  1  0
 28 26  1  0
 29 27  2  0
 30 26  1  0
 30 31  1  0
 32 28  1  0
 33 27  1  0
 28 34  1  0
 32 35  1  0
 36 41  1  0
 26 37  1  6
 38 39  1  0
 39 30  1  0
 40 29  1  0
 41 37  1  0
 42 33  2  0
 43 42  1  0
 44 40  1  0
 39 45  1  0
 46 36  1  0
 29 31  1  0
 32 36  1  0
 38 34  2  0
 35 33  1  0
 43 40  2  0
 48 47  1  0
 49 47  1  0
 50 48  2  0
 51 47  1  0
 52 51  1  0
 53 49  1  0
 54 62  1  0
 55 48  1  0
 49 56  1  0
 53 57  1  0
 47 58  1  1
 59 60  1  0
 60 51  1  0
 61 50  1  0
 62 58  1  0
 63 55  2  0
 64 63  1  0
 65 54  1  0
 60 66  1  0
 67 61  1  0
 68 67  1  0
 52 50  1  0
 53 54  1  0
 59 56  2  0
 57 55  1  0
 64 61  2  0
  3 69  1  0
  7 70  1  0
 10 71  1  0
 10 72  1  0
 12 73  1  0
 14 74  1  0
 15 75  1  0
 16 76  1  0
 21 77  1  0
 22 78  1  0
 22 79  1  0
 22 80  1  0
 23 81  1  0
 23 82  1  0
 23 83  1  0
 24 84  1  0
 24 85  1  0
 24 86  1  0
 25 87  1  0
 25 88  1  0
 25 89  1  0
 28 90  1  1
 30 91  1  6
 32 92  1  1
 34 93  1  0
 35 94  1  0
 35 95  1  0
 37 96  1  0
 37 97  1  0
 38 98  1  0
 39 99  1  1
 41100  1  0
 41101  1  0
 42102  1  0
 43103  1  0
 44104  1  0
 45105  1  0
 46106  1  0
 46107  1  0
 46108  1  0
 49109  1  1
 51110  1  1
 53111  1  6
 56112  1  0
 57113  1  0
 57114  1  0
 58115  1  0
 58116  1  0
 59117  1  0
 60118  1  1
 62119  1  0
 62120  1  0
 63121  1  0
 64122  1  0
 65123  1  0
 65124  1  0
 65125  1  0
 66126  1  0
 68127  1  0
 68128  1  0
 68129  1  0
M  END
> <Uni-Dock RESULT> 
ENERGY=   -5.149  LOWER_BOUND=    3.418  UPPER_BOUND=    7.102
INTER + INTRA:          -5.149
INTER:                  -5.149
INTRA:                   0.000
UNBOUND:                 0.000

$$$$
