
     RDKit          3D

129139  0  0  0  0  0  0  0  0999 V2000
   47.5108    8.1809   20.5116 C   0  0  0  0  0  0  0  0  0  0  0  0
   46.8898    9.0200   21.4725 C   0  0  0  0  0  0  0  0  0  0  0  0
   47.6412    8.4770   19.1325 C   0  0  0  0  0  0  0  0  0  0  0  0
   48.0332    6.9550   20.9751 C   0  0  0  0  0  0  0  0  0  0  0  0
   48.2650    7.5927   18.2428 C   0  0  0  0  0  0  0  0  0  0  0  0
   48.7839    6.3788   18.7221 C   0  0  0  0  0  0  0  0  0  0  0  0
   48.6645    6.0721   20.0811 C   0  0  0  0  0  0  0  0  0  0  0  0
   46.7800    8.6876   22.7889 N   0  0  0  0  0  0  0  0  0  0  0  0
   48.4086   13.2214   19.6681 C   0  0  0  0  0  0  0  0  0  0  0  0
   46.3060   10.3749   21.1174 C   0  0  0  0  0  0  0  0  0  0  0  0
   49.2102   13.5824   20.7625 C   0  0  0  0  0  0  0  0  0  0  0  0
   47.4589   12.1989   19.7846 C   0  0  0  0  0  0  0  0  0  0  0  0
   47.3324   11.4802   20.9803 C   0  0  0  0  0  0  0  0  0  0  0  0
   49.0773   12.8725   21.9584 C   0  0  0  0  0  0  0  0  0  0  0  0
   48.1491   11.8312   22.0648 C   0  0  0  0  0  0  0  0  0  0  0  0
   47.2923    7.5080   23.1833 C   0  0  0  0  0  0  0  0  0  0  0  0
   48.4182    7.8226   16.8973 O   0  0  0  0  0  0  0  0  0  0  0  0
   49.3794    5.5667   17.7892 O   0  0  0  0  0  0  0  0  0  0  0  0
   48.5332   13.9493   18.5085 O   0  0  0  0  0  0  0  0  0  0  0  0
   50.0932   14.6120   20.5578 O   0  0  0  0  0  0  0  0  0  0  0  0
   47.9187    6.6232   22.3288 C   0  0  0  0  0  0  0  0  0  0  0  0
   47.8488    9.0060   16.3555 C   0  0  0  0  0  0  0  0  0  0  0  0
   48.7318   13.1284   17.3592 C   0  0  0  0  0  0  0  0  0  0  0  0
   49.9196    4.3321   18.2348 C   0  0  0  0  0  0  0  0  0  0  0  0
   50.8032   15.0964   21.6887 C   0  0  0  0  0  0  0  0  0  0  0  0
   47.7661    9.9359   20.6530 C   0  0  2  0  0  0  0  0  0  0  0  0
   48.2249    8.9457   19.6254 C   0  0  0  0  0  0  0  0  0  0  0  0
   48.7596   11.1004   20.7113 C   0  0  2  0  0  0  0  0  0  0  0  0
   47.9054    7.6625   20.0165 C   0  0  0  0  0  0  0  0  0  0  0  0
   47.7232    8.9481   21.8360 C   0  0  1  0  0  0  0  0  0  0  0  0
   47.3841    7.6228   21.2893 O   0  0  0  0  0  0  0  0  0  0  0  0
   48.8507   11.6601   19.2455 C   0  0  1  0  0  0  0  0  0  0  0  0
   48.9409    9.2164   18.4724 C   0  0  0  0  0  0  0  0  0  0  0  0
   50.0770   10.7199   21.3371 C   0  0  0  0  0  0  0  0  0  0  0  0
   49.4660   10.6129   18.2593 C   0  0  0  0  0  0  0  0  0  0  0  0
   47.5196   12.0367   18.6955 N   0  0  0  0  0  0  0  0  0  0  0  0
   46.3628   10.4591   20.2542 C   0  0  0  0  0  0  0  0  0  0  0  0
   50.1848    9.7118   22.2145 C   0  0  0  0  0  0  0  0  0  0  0  0
   49.0369    8.8623   22.6765 C   0  0  2  0  0  0  0  0  0  0  0  0
   48.1751    6.5913   19.1961 C   0  0  0  0  0  0  0  0  0  0  0  0
   46.4040   11.8624   19.6253 C   0  0  0  0  0  0  0  0  0  0  0  0
   49.2358    8.1384   17.6336 C   0  0  0  0  0  0  0  0  0  0  0  0
   48.8312    6.8332   17.9835 C   0  0  0  0  0  0  0  0  0  0  0  0
   47.8364    5.3321   19.5860 O   0  0  0  0  0  0  0  0  0  0  0  0
   49.5268    7.5249   22.7972 O   0  0  0  0  0  0  0  0  0  0  0  0
   47.5289   13.3791   18.1203 C   0  0  0  0  0  0  0  0  0  0  0  0
   47.7859   10.3154   20.5738 C   0  0  2  0  0  0  0  0  0  0  0  0
   48.4219    9.3401   19.6262 C   0  0  0  0  0  0  0  0  0  0  0  0
   48.7625   11.4808   20.7866 C   0  0  2  0  0  0  0  0  0  0  0  0
   48.1111    8.0429   19.9810 C   0  0  0  0  0  0  0  0  0  0  0  0
   47.5683    9.3250   21.7398 C   0  0  1  0  0  0  0  0  0  0  0  0
   47.4092    7.9871   21.1595 O   0  0  0  0  0  0  0  0  0  0  0  0
   49.0416   12.0765   19.3612 C   0  0  2  0  0  0  0  0  0  0  0  0
   47.7970   12.4945   18.6590 N   0  0  0  0  0  0  0  0  0  0  0  0
   49.2774    9.6407   18.5811 C   0  0  0  0  0  0  0  0  0  0  0  0
   49.9951   11.0667   21.5553 C   0  0  0  0  0  0  0  0  0  0  0  0
   49.7732   11.0549   18.4298 C   0  0  0  0  0  0  0  0  0  0  0  0
   46.4587   10.8236   19.9586 C   0  0  0  0  0  0  0  0  0  0  0  0
   49.9506   10.0884   22.4733 C   0  0  0  0  0  0  0  0  0  0  0  0
   48.6755    9.3737   22.8399 C   0  0  2  0  0  0  0  0  0  0  0  0
   48.5290    6.9667   19.2164 C   0  0  0  0  0  0  0  0  0  0  0  0
   46.5659   12.2574   19.4121 C   0  0  0  0  0  0  0  0  0  0  0  0
   49.7282    8.5747   17.8029 C   0  0  0  0  0  0  0  0  0  0  0  0
   49.3360    7.2516   18.1046 C   0  0  0  0  0  0  0  0  0  0  0  0
   47.8712   13.8758   18.1924 C   0  0  0  0  0  0  0  0  0  0  0  0
   48.9777    8.0795   23.3513 O   0  0  0  0  0  0  0  0  0  0  0  0
   48.1330    5.7274   19.6279 O   0  0  0  0  0  0  0  0  0  0  0  0
   48.5316    4.6240   18.8289 C   0  0  0  0  0  0  0  0  0  0  0  0
   47.2465    9.4147   18.7632 H   0  0  0  0  0  0  0  0  0  0  0  0
   49.0600    5.1389   20.4706 H   0  0  0  0  0  0  0  0  0  0  0  0
   45.6995   10.2847   20.2081 H   0  0  0  0  0  0  0  0  0  0  0  0
   45.5964   10.6768   21.8993 H   0  0  0  0  0  0  0  0  0  0  0  0
   46.8032   11.9771   18.9479 H   0  0  0  0  0  0  0  0  0  0  0  0
   49.6817   13.0994   22.8304 H   0  0  0  0  0  0  0  0  0  0  0  0
   48.0598   11.2953   23.0091 H   0  0  0  0  0  0  0  0  0  0  0  0
   47.1825    7.2829   24.2400 H   0  0  0  0  0  0  0  0  0  0  0  0
   48.3093    5.6891   22.7208 H   0  0  0  0  0  0  0  0  0  0  0  0
   46.7626    9.0265   16.5019 H   0  0  0  0  0  0  0  0  0  0  0  0
   48.3233    9.8999   16.7767 H   0  0  0  0  0  0  0  0  0  0  0  0
   48.0388    9.0064   15.2774 H   0  0  0  0  0  0  0  0  0  0  0  0
   47.7691   12.7711   16.9741 H   0  0  0  0  0  0  0  0  0  0  0  0
   49.4025   12.2835   17.5640 H   0  0  0  0  0  0  0  0  0  0  0  0
   49.1966   13.7463   16.5840 H   0  0  0  0  0  0  0  0  0  0  0  0
   50.3380    3.8166   17.3642 H   0  0  0  0  0  0  0  0  0  0  0  0
   49.1397    3.6875   18.6573 H   0  0  0  0  0  0  0  0  0  0  0  0
   50.7333    4.4930   18.9509 H   0  0  0  0  0  0  0  0  0  0  0  0
   51.3960   15.9571   21.3651 H   0  0  0  0  0  0  0  0  0  0  0  0
   50.1186   15.4383   22.4714 H   0  0  0  0  0  0  0  0  0  0  0  0
   51.4962   14.3400   22.0697 H   0  0  0  0  0  0  0  0  0  0  0  0
   48.3662   11.8960   21.3596 H   0  0  0  0  0  0  0  0  0  0  0  0
   46.9120    9.2120   22.5268 H   0  0  0  0  0  0  0  0  0  0  0  0
   49.5117   12.5368   19.2595 H   0  0  0  0  0  0  0  0  0  0  0  0
   50.9566   11.3127   21.0937 H   0  0  0  0  0  0  0  0  0  0  0  0
   50.5535   10.5922   18.4162 H   0  0  0  0  0  0  0  0  0  0  0  0
   49.3017   10.9211   17.2187 H   0  0  0  0  0  0  0  0  0  0  0  0
   45.8599    9.7713   19.5617 H   0  0  0  0  0  0  0  0  0  0  0  0
   45.7198   10.5258   21.1417 H   0  0  0  0  0  0  0  0  0  0  0  0
   51.1530    9.4927   22.6597 H   0  0  0  0  0  0  0  0  0  0  0  0
   48.7981    9.1922   23.6983 H   0  0  0  0  0  0  0  0  0  0  0  0
   46.4482   12.6166   20.4221 H   0  0  0  0  0  0  0  0  0  0  0  0
   45.4523   12.0254   19.1026 H   0  0  0  0  0  0  0  0  0  0  0  0
   49.7954    8.2980   16.7145 H   0  0  0  0  0  0  0  0  0  0  0  0
   49.0781    6.0148   17.3134 H   0  0  0  0  0  0  0  0  0  0  0  0
   48.0286    4.7222   18.8569 H   0  0  0  0  0  0  0  0  0  0  0  0
   48.8584    6.9497   22.3691 H   0  0  0  0  0  0  0  0  0  0  0  0
   47.7162   14.1464   18.8805 H   0  0  0  0  0  0  0  0  0  0  0  0
   46.5737   13.5998   17.6323 H   0  0  0  0  0  0  0  0  0  0  0  0
   48.2995   13.4610   17.3459 H   0  0  0  0  0  0  0  0  0  0  0  0
   48.2899   12.2585   21.4015 H   0  0  0  0  0  0  0  0  0  0  0  0
   46.6171    9.5318   22.2467 H   0  0  0  0  0  0  0  0  0  0  0  0
   49.7058   12.9432   19.4845 H   0  0  0  0  0  0  0  0  0  0  0  0
   50.9281   11.5932   21.3707 H   0  0  0  0  0  0  0  0  0  0  0  0
   50.8393   11.0619   18.6888 H   0  0  0  0  0  0  0  0  0  0  0  0
   49.6997   11.3671   17.3809 H   0  0  0  0  0  0  0  0  0  0  0  0
   46.1069   10.1593   19.1581 H   0  0  0  0  0  0  0  0  0  0  0  0
   45.6682   10.8320   20.7195 H   0  0  0  0  0  0  0  0  0  0  0  0
   50.8555    9.8385   23.0198 H   0  0  0  0  0  0  0  0  0  0  0  0
   48.2596    9.9383   23.6847 H   0  0  0  0  0  0  0  0  0  0  0  0
   46.4806   12.9650   20.2470 H   0  0  0  0  0  0  0  0  0  0  0  0
   45.6969   12.4378   18.7676 H   0  0  0  0  0  0  0  0  0  0  0  0
   50.4003    8.7544   16.9670 H   0  0  0  0  0  0  0  0  0  0  0  0
   49.7137    6.4615   17.4654 H   0  0  0  0  0  0  0  0  0  0  0  0
   48.7443   14.0197   17.5473 H   0  0  0  0  0  0  0  0  0  0  0  0
   46.9926   14.1297   17.5902 H   0  0  0  0  0  0  0  0  0  0  0  0
   47.9367   14.5847   19.0260 H   0  0  0  0  0  0  0  0  0  0  0  0
   49.6863    8.1691   24.0080 H   0  0  0  0  0  0  0  0  0  0  0  0
   48.1278    4.7034   17.8140 H   0  0  0  0  0  0  0  0  0  0  0  0
   49.6222    4.5223   18.8152 H   0  0  0  0  0  0  0  0  0  0  0  0
   48.1194    3.7169   19.2810 H   0  0  0  0  0  0  0  0  0  0  0  0
  2  1  1  0
  3  1  2  0
  4  1  1  0
  5  3  1  0
  6  7  1  0
  7  4  2  0
  8  2  2  0
  9 12  2  0
 10  2  1  0
 11 14  2  0
 12 13  1  0
 13 10  1  0
 14 15  1  0
 15 13  2  0
 16 21  2  0
 17  5  1  0
 18  6  1  0
 19  9  1  0
 20 11  1  0
 21  4  1  0
 22 17  1  0
 23 19  1  0
 24 18  1  0
 25 20  1  0
 16  8  1  0
  6  5  2  0
 11  9  1  0
 27 26  1  0
 28 26  1  0
 29 27  2  0
 30 26  1  0
 30 31  1  0
 32 28  1  0
 33 27  1  0
 28 34  1  0
 32 35  1  0
 36 41  1  0
 26 37  1  1
 38 39  1  0
 39 30  1  0
 40 29  1  0
 41 37  1  0
 42 33  2  0
 43 42  1  0
 44 40  1  0
 39 45  1  0
 46 36  1  0
 29 31  1  0
 32 36  1  0
 38 34  2  0
 35 33  1  0
 43 40  2  0
 48 47  1  0
 49 47  1  0
 50 48  2  0
 51 47  1  0
 52 51  1  0
 53 49  1  0
 54 62  1  0
 55 48  1  0
 49 56  1  0
 53 57  1  0
 47 58  1  1
 59 60  1  0
 60 51  1  0
 61 50  1  0
 62 58  1  0
 63 55  2  0
 64 63  1  0
 65 54  1  0
 60 66  1  0
 67 61  1  0
 68 67  1  0
 52 50  1  0
 53 54  1  0
 59 56  2  0
 57 55  1  0
 64 61  2  0
  3 69  1  0
  7 70  1  0
 10 71  1  0
 10 72  1  0
 12 73  1  0
 14 74  1  0
 15 75  1  0
 16 76  1  0
 21 77  1  0
 22 78  1  0
 22 79  1  0
 22 80  1  0
 23 81  1  0
 23 82  1  0
 23 83  1  0
 24 84  1  0
 24 85  1  0
 24 86  1  0
 25 87  1  0
 25 88  1  0
 25 89  1  0
 28 90  1  1
 30 91  1  1
 32 92  1  6
 34 93  1  0
 35 94  1  0
 35 95  1  0
 37 96  1  0
 37 97  1  0
 38 98  1  0
 39 99  1  1
 41100  1  0
 41101  1  0
 42102  1  0
 43103  1  0
 44104  1  0
 45105  1  0
 46106  1  0
 46107  1  0
 46108  1  0
 49109  1  1
 51110  1  1
 53111  1  6
 56112  1  0
 57113  1  0
 57114  1  0
 58115  1  0
 58116  1  0
 59117  1  0
 60118  1  1
 62119  1  0
 62120  1  0
 63121  1  0
 64122  1  0
 65123  1  0
 65124  1  0
 65125  1  0
 66126  1  0
 68127  1  0
 68128  1  0
 68129  1  0
M  END
> <Uni-Dock RESULT> 
ENERGY=   -7.829  LOWER_BOUND=    0.000  UPPER_BOUND=    0.000
INTER + INTRA:          -7.829
INTER:                  -7.829
INTRA:                   0.000
UNBOUND:                 0.000

$$$$

     RDKit          3D

129139  0  0  0  0  0  0  0  0999 V2000
   47.5109    8.1810   20.5116 C   0  0  0  0  0  0  0  0  0  0  0  0
   46.8898    9.0201   21.4725 C   0  0  0  0  0  0  0  0  0  0  0  0
   47.6413    8.4770   19.1325 C   0  0  0  0  0  0  0  0  0  0  0  0
   48.0333    6.9550   20.9751 C   0  0  0  0  0  0  0  0  0  0  0  0
   48.2651    7.5928   18.2428 C   0  0  0  0  0  0  0  0  0  0  0  0
   48.7840    6.3788   18.7221 C   0  0  0  0  0  0  0  0  0  0  0  0
   48.6646    6.0721   20.0811 C   0  0  0  0  0  0  0  0  0  0  0  0
   46.7800    8.6877   22.7889 N   0  0  0  0  0  0  0  0  0  0  0  0
   48.4086   13.2214   19.6680 C   0  0  0  0  0  0  0  0  0  0  0  0
   46.3060   10.3749   21.1173 C   0  0  0  0  0  0  0  0  0  0  0  0
   49.2101   13.5825   20.7624 C   0  0  0  0  0  0  0  0  0  0  0  0
   47.4590   12.1989   19.7845 C   0  0  0  0  0  0  0  0  0  0  0  0
   47.3324   11.4803   20.9803 C   0  0  0  0  0  0  0  0  0  0  0  0
   49.0773   12.8726   21.9584 C   0  0  0  0  0  0  0  0  0  0  0  0
   48.1491   11.8313   22.0647 C   0  0  0  0  0  0  0  0  0  0  0  0
   47.2923    7.5081   23.1833 C   0  0  0  0  0  0  0  0  0  0  0  0
   48.4183    7.8226   16.8973 O   0  0  0  0  0  0  0  0  0  0  0  0
   49.3795    5.5667   17.7892 O   0  0  0  0  0  0  0  0  0  0  0  0
   48.5332   13.9493   18.5084 O   0  0  0  0  0  0  0  0  0  0  0  0
   50.0932   14.6120   20.5577 O   0  0  0  0  0  0  0  0  0  0  0  0
   47.9187    6.6232   22.3288 C   0  0  0  0  0  0  0  0  0  0  0  0
   47.8489    9.0060   16.3555 C   0  0  0  0  0  0  0  0  0  0  0  0
   48.7318   13.1284   17.3592 C   0  0  0  0  0  0  0  0  0  0  0  0
   49.9197    4.3321   18.2349 C   0  0  0  0  0  0  0  0  0  0  0  0
   50.8032   15.0965   21.6886 C   0  0  0  0  0  0  0  0  0  0  0  0
   47.7661    9.9360   20.6530 C   0  0  2  0  0  0  0  0  0  0  0  0
   48.2249    8.9457   19.6253 C   0  0  0  0  0  0  0  0  0  0  0  0
   48.7596   11.1005   20.7113 C   0  0  2  0  0  0  0  0  0  0  0  0
   47.9055    7.6625   20.0165 C   0  0  0  0  0  0  0  0  0  0  0  0
   47.7232    8.9481   21.8360 C   0  0  1  0  0  0  0  0  0  0  0  0
   47.3841    7.6228   21.2893 O   0  0  0  0  0  0  0  0  0  0  0  0
   48.8507   11.6601   19.2455 C   0  0  1  0  0  0  0  0  0  0  0  0
   48.9409    9.2164   18.4724 C   0  0  0  0  0  0  0  0  0  0  0  0
   50.0770   10.7199   21.3371 C   0  0  0  0  0  0  0  0  0  0  0  0
   49.4660   10.6129   18.2593 C   0  0  0  0  0  0  0  0  0  0  0  0
   47.5196   12.0367   18.6955 N   0  0  0  0  0  0  0  0  0  0  0  0
   46.3628   10.4591   20.2541 C   0  0  0  0  0  0  0  0  0  0  0  0
   50.1848    9.7119   22.2145 C   0  0  0  0  0  0  0  0  0  0  0  0
   49.0369    8.8624   22.6765 C   0  0  2  0  0  0  0  0  0  0  0  0
   48.1752    6.5913   19.1961 C   0  0  0  0  0  0  0  0  0  0  0  0
   46.4040   11.8624   19.6253 C   0  0  0  0  0  0  0  0  0  0  0  0
   49.2358    8.1384   17.6336 C   0  0  0  0  0  0  0  0  0  0  0  0
   48.8313    6.8333   17.9836 C   0  0  0  0  0  0  0  0  0  0  0  0
   47.8365    5.3321   19.5860 O   0  0  0  0  0  0  0  0  0  0  0  0
   49.5268    7.5250   22.7972 O   0  0  0  0  0  0  0  0  0  0  0  0
   47.5290   13.3791   18.1202 C   0  0  0  0  0  0  0  0  0  0  0  0
   47.7859   10.3155   20.5738 C   0  0  2  0  0  0  0  0  0  0  0  0
   48.4220    9.3402   19.6261 C   0  0  0  0  0  0  0  0  0  0  0  0
   48.7625   11.4808   20.7866 C   0  0  2  0  0  0  0  0  0  0  0  0
   48.1112    8.0429   19.9810 C   0  0  0  0  0  0  0  0  0  0  0  0
   47.5683    9.3251   21.7397 C   0  0  1  0  0  0  0  0  0  0  0  0
   47.4093    7.9871   21.1595 O   0  0  0  0  0  0  0  0  0  0  0  0
   49.0416   12.0765   19.3612 C   0  0  2  0  0  0  0  0  0  0  0  0
   47.7971   12.4946   18.6589 N   0  0  0  0  0  0  0  0  0  0  0  0
   49.2775    9.6408   18.5811 C   0  0  0  0  0  0  0  0  0  0  0  0
   49.9951   11.0668   21.5553 C   0  0  0  0  0  0  0  0  0  0  0  0
   49.7732   11.0550   18.4298 C   0  0  0  0  0  0  0  0  0  0  0  0
   46.4588   10.8236   19.9586 C   0  0  0  0  0  0  0  0  0  0  0  0
   49.9506   10.0885   22.4733 C   0  0  0  0  0  0  0  0  0  0  0  0
   48.6755    9.3738   22.8398 C   0  0  2  0  0  0  0  0  0  0  0  0
   48.5291    6.9668   19.2164 C   0  0  0  0  0  0  0  0  0  0  0  0
   46.5660   12.2574   19.4121 C   0  0  0  0  0  0  0  0  0  0  0  0
   49.7283    8.5747   17.8029 C   0  0  0  0  0  0  0  0  0  0  0  0
   49.3361    7.2516   18.1046 C   0  0  0  0  0  0  0  0  0  0  0  0
   47.8713   13.8759   18.1923 C   0  0  0  0  0  0  0  0  0  0  0  0
   48.9777    8.0796   23.3513 O   0  0  0  0  0  0  0  0  0  0  0  0
   48.1331    5.7274   19.6280 O   0  0  0  0  0  0  0  0  0  0  0  0
   48.5317    4.6240   18.8290 C   0  0  0  0  0  0  0  0  0  0  0  0
   47.2466    9.4147   18.7632 H   0  0  0  0  0  0  0  0  0  0  0  0
   49.0601    5.1389   20.4707 H   0  0  0  0  0  0  0  0  0  0  0  0
   45.6995   10.2848   20.2080 H   0  0  0  0  0  0  0  0  0  0  0  0
   45.5964   10.6769   21.8992 H   0  0  0  0  0  0  0  0  0  0  0  0
   46.8032   11.9771   18.9478 H   0  0  0  0  0  0  0  0  0  0  0  0
   49.6817   13.0995   22.8303 H   0  0  0  0  0  0  0  0  0  0  0  0
   48.0598   11.2954   23.0090 H   0  0  0  0  0  0  0  0  0  0  0  0
   47.1825    7.2830   24.2400 H   0  0  0  0  0  0  0  0  0  0  0  0
   48.3093    5.6892   22.7208 H   0  0  0  0  0  0  0  0  0  0  0  0
   46.7627    9.0265   16.5019 H   0  0  0  0  0  0  0  0  0  0  0  0
   48.3234    9.8999   16.7767 H   0  0  0  0  0  0  0  0  0  0  0  0
   48.0389    9.0063   15.2774 H   0  0  0  0  0  0  0  0  0  0  0  0
   47.7691   12.7711   16.9741 H   0  0  0  0  0  0  0  0  0  0  0  0
   49.4025   12.2835   17.5640 H   0  0  0  0  0  0  0  0  0  0  0  0
   49.1966   13.7463   16.5840 H   0  0  0  0  0  0  0  0  0  0  0  0
   50.3382    3.8166   17.3642 H   0  0  0  0  0  0  0  0  0  0  0  0
   49.1398    3.6875   18.6574 H   0  0  0  0  0  0  0  0  0  0  0  0
   50.7334    4.4931   18.9510 H   0  0  0  0  0  0  0  0  0  0  0  0
   51.3960   15.9572   21.3650 H   0  0  0  0  0  0  0  0  0  0  0  0
   50.1185   15.4384   22.4713 H   0  0  0  0  0  0  0  0  0  0  0  0
   51.4961   14.3401   22.0697 H   0  0  0  0  0  0  0  0  0  0  0  0
   48.3662   11.8960   21.3596 H   0  0  0  0  0  0  0  0  0  0  0  0
   46.9120    9.2120   22.5268 H   0  0  0  0  0  0  0  0  0  0  0  0
   49.5117   12.5369   19.2594 H   0  0  0  0  0  0  0  0  0  0  0  0
   50.9566   11.3128   21.0937 H   0  0  0  0  0  0  0  0  0  0  0  0
   50.5536   10.5923   18.4162 H   0  0  0  0  0  0  0  0  0  0  0  0
   49.3018   10.9211   17.2187 H   0  0  0  0  0  0  0  0  0  0  0  0
   45.8599    9.7713   19.5616 H   0  0  0  0  0  0  0  0  0  0  0  0
   45.7199   10.5259   21.1416 H   0  0  0  0  0  0  0  0  0  0  0  0
   51.1530    9.4928   22.6598 H   0  0  0  0  0  0  0  0  0  0  0  0
   48.7981    9.1922   23.6983 H   0  0  0  0  0  0  0  0  0  0  0  0
   46.4482   12.6167   20.4220 H   0  0  0  0  0  0  0  0  0  0  0  0
   45.4524   12.0254   19.1025 H   0  0  0  0  0  0  0  0  0  0  0  0
   49.7955    8.2980   16.7145 H   0  0  0  0  0  0  0  0  0  0  0  0
   49.0782    6.0148   17.3134 H   0  0  0  0  0  0  0  0  0  0  0  0
   48.0287    4.7222   18.8569 H   0  0  0  0  0  0  0  0  0  0  0  0
   48.8584    6.9498   22.3692 H   0  0  0  0  0  0  0  0  0  0  0  0
   47.7162   14.1464   18.8804 H   0  0  0  0  0  0  0  0  0  0  0  0
   46.5737   13.5998   17.6322 H   0  0  0  0  0  0  0  0  0  0  0  0
   48.2996   13.4610   17.3458 H   0  0  0  0  0  0  0  0  0  0  0  0
   48.2899   12.2585   21.4014 H   0  0  0  0  0  0  0  0  0  0  0  0
   46.6171    9.5319   22.2466 H   0  0  0  0  0  0  0  0  0  0  0  0
   49.7058   12.9433   19.4845 H   0  0  0  0  0  0  0  0  0  0  0  0
   50.9281   11.5933   21.3707 H   0  0  0  0  0  0  0  0  0  0  0  0
   50.8394   11.0620   18.6888 H   0  0  0  0  0  0  0  0  0  0  0  0
   49.6997   11.3671   17.3809 H   0  0  0  0  0  0  0  0  0  0  0  0
   46.1069   10.1593   19.1580 H   0  0  0  0  0  0  0  0  0  0  0  0
   45.6682   10.8320   20.7194 H   0  0  0  0  0  0  0  0  0  0  0  0
   50.8554    9.8386   23.0198 H   0  0  0  0  0  0  0  0  0  0  0  0
   48.2595    9.9384   23.6847 H   0  0  0  0  0  0  0  0  0  0  0  0
   46.4806   12.9650   20.2469 H   0  0  0  0  0  0  0  0  0  0  0  0
   45.6969   12.4378   18.7675 H   0  0  0  0  0  0  0  0  0  0  0  0
   50.4004    8.7544   16.9670 H   0  0  0  0  0  0  0  0  0  0  0  0
   49.7138    6.4615   17.4655 H   0  0  0  0  0  0  0  0  0  0  0  0
   48.7443   14.0197   17.5472 H   0  0  0  0  0  0  0  0  0  0  0  0
   46.9927   14.1297   17.5901 H   0  0  0  0  0  0  0  0  0  0  0  0
   47.9367   14.5847   19.0259 H   0  0  0  0  0  0  0  0  0  0  0  0
   49.6863    8.1692   24.0080 H   0  0  0  0  0  0  0  0  0  0  0  0
   48.1280    4.7034   17.8140 H   0  0  0  0  0  0  0  0  0  0  0  0
   49.6223    4.5223   18.8153 H   0  0  0  0  0  0  0  0  0  0  0  0
   48.1195    3.7169   19.2810 H   0  0  0  0  0  0  0  0  0  0  0  0
  2  1  1  0
  3  1  2  0
  4  1  1  0
  5  3  1  0
  6  7  1  0
  7  4  2  0
  8  2  2  0
  9 12  2  0
 10  2  1  0
 11 14  2  0
 12 13  1  0
 13 10  1  0
 14 15  1  0
 15 13  2  0
 16 21  2  0
 17  5  1  0
 18  6  1  0
 19  9  1  0
 20 11  1  0
 21  4  1  0
 22 17  1  0
 23 19  1  0
 24 18  1  0
 25 20  1  0
 16  8  1  0
  6  5  2  0
 11  9  1  0
 27 26  1  0
 28 26  1  0
 29 27  2  0
 30 26  1  0
 30 31  1  0
 32 28  1  0
 33 27  1  0
 28 34  1  0
 32 35  1  0
 36 41  1  0
 26 37  1  1
 38 39  1  0
 39 30  1  0
 40 29  1  0
 41 37  1  0
 42 33  2  0
 43 42  1  0
 44 40  1  0
 39 45  1  0
 46 36  1  0
 29 31  1  0
 32 36  1  0
 38 34  2  0
 35 33  1  0
 43 40  2  0
 48 47  1  0
 49 47  1  0
 50 48  2  0
 51 47  1  0
 52 51  1  0
 53 49  1  0
 54 62  1  0
 55 48  1  0
 49 56  1  0
 53 57  1  0
 47 58  1  1
 59 60  1  0
 60 51  1  0
 61 50  1  0
 62 58  1  0
 63 55  2  0
 64 63  1  0
 65 54  1  0
 60 66  1  0
 67 61  1  0
 68 67  1  0
 52 50  1  0
 53 54  1  0
 59 56  2  0
 57 55  1  0
 64 61  2  0
  3 69  1  0
  7 70  1  0
 10 71  1  0
 10 72  1  0
 12 73  1  0
 14 74  1  0
 15 75  1  0
 16 76  1  0
 21 77  1  0
 22 78  1  0
 22 79  1  0
 22 80  1  0
 23 81  1  0
 23 82  1  0
 23 83  1  0
 24 84  1  0
 24 85  1  0
 24 86  1  0
 25 87  1  0
 25 88  1  0
 25 89  1  0
 28 90  1  1
 30 91  1  1
 32 92  1  6
 34 93  1  0
 35 94  1  0
 35 95  1  0
 37 96  1  0
 37 97  1  0
 38 98  1  0
 39 99  1  1
 41100  1  0
 41101  1  0
 42102  1  0
 43103  1  0
 44104  1  0
 45105  1  0
 46106  1  0
 46107  1  0
 46108  1  0
 49109  1  1
 51110  1  1
 53111  1  6
 56112  1  0
 57113  1  0
 57114  1  0
 58115  1  0
 58116  1  0
 59117  1  0
 60118  1  1
 62119  1  0
 62120  1  0
 63121  1  0
 64122  1  0
 65123  1  0
 65124  1  0
 65125  1  0
 66126  1  0
 68127  1  0
 68128  1  0
 68129  1  0
M  END
> <Uni-Dock RESULT> 
ENERGY=   -7.828  LOWER_BOUND=    0.000  UPPER_BOUND=    0.000
INTER + INTRA:          -7.828
INTER:                  -7.828
INTRA:                   0.000
UNBOUND:                 0.000

$$$$

     RDKit          3D

129139  0  0  0  0  0  0  0  0999 V2000
   48.3691   13.6408   19.4581 C   0  0  0  0  0  0  0  0  0  0  0  0
   47.4098   13.0078   18.6260 C   0  0  0  0  0  0  0  0  0  0  0  0
   48.5766   13.3527   20.8294 C   0  0  0  0  0  0  0  0  0  0  0  0
   49.1724   14.6374   18.8647 C   0  0  0  0  0  0  0  0  0  0  0  0
   49.5431   14.0261   21.5877 C   0  0  0  0  0  0  0  0  0  0  0  0
   50.3376   15.0120   20.9798 C   0  0  0  0  0  0  0  0  0  0  0  0
   50.1461   15.3073   19.6265 C   0  0  0  0  0  0  0  0  0  0  0  0
   47.2405   13.3256   17.3124 N   0  0  0  0  0  0  0  0  0  0  0  0
   47.8135    8.5887   20.5029 C   0  0  0  0  0  0  0  0  0  0  0  0
   46.4962   11.9045   19.1267 C   0  0  0  0  0  0  0  0  0  0  0  0
   48.3262    7.9739   19.3498 C   0  0  0  0  0  0  0  0  0  0  0  0
   47.2071    9.8489   20.4312 C   0  0  0  0  0  0  0  0  0  0  0  0
   47.1529   10.5425   19.2154 C   0  0  0  0  0  0  0  0  0  0  0  0
   48.2633    8.6611   18.1350 C   0  0  0  0  0  0  0  0  0  0  0  0
   47.6842    9.9329   18.0698 C   0  0  0  0  0  0  0  0  0  0  0  0
   48.0291   14.2829   16.7915 C   0  0  0  0  0  0  0  0  0  0  0  0
   49.7879   13.7934   22.9191 O   0  0  0  0  0  0  0  0  0  0  0  0
   51.2611   15.6264   21.7886 O   0  0  0  0  0  0  0  0  0  0  0  0
   47.8586    7.8860   21.6837 O   0  0  0  0  0  0  0  0  0  0  0  0
   48.8785    6.7295   19.5169 O   0  0  0  0  0  0  0  0  0  0  0  0
   48.9938   14.9552   17.5146 C   0  0  0  0  0  0  0  0  0  0  0  0
   48.9627   12.8535   23.5928 C   0  0  0  0  0  0  0  0  0  0  0  0
   48.4365    8.6350   22.7510 C   0  0  0  0  0  0  0  0  0  0  0  0
   52.0861   16.6263   21.2103 C   0  0  0  0  0  0  0  0  0  0  0  0
   49.2630    6.0242   18.3454 C   0  0  0  0  0  0  0  0  0  0  0  0
   48.0669   11.8886   19.3968 C   0  0  2  0  0  0  0  0  0  0  0  0
   48.9264   12.7166   20.3039 C   0  0  0  0  0  0  0  0  0  0  0  0
   48.6502   10.4756   19.2990 C   0  0  2  0  0  0  0  0  0  0  0  0
   48.9598   14.0261   19.8731 C   0  0  0  0  0  0  0  0  0  0  0  0
   48.1740   12.8134   18.1677 C   0  0  1  0  0  0  0  0  0  0  0  0
   48.3190   14.1918   18.6668 O   0  0  0  0  0  0  0  0  0  0  0  0
   48.7525    9.9507   20.7768 C   0  0  1  0  0  0  0  0  0  0  0  0
   49.6670   12.2686   21.3837 C   0  0  0  0  0  0  0  0  0  0  0  0
   49.9318   10.4210   18.5073 C   0  0  0  0  0  0  0  0  0  0  0  0
   49.7719   10.7841   21.6218 C   0  0  0  0  0  0  0  0  0  0  0  0
   47.4497   10.0114   21.4946 N   0  0  0  0  0  0  0  0  0  0  0  0
   46.6329   11.8281   19.9816 C   0  0  0  0  0  0  0  0  0  0  0  0
   50.2257   11.3265   17.5632 C   0  0  0  0  0  0  0  0  0  0  0  0
   49.3368   12.4740   17.1816 C   0  0  2  0  0  0  0  0  0  0  0  0
   49.6386   14.9838   20.5909 C   0  0  0  0  0  0  0  0  0  0  0  0
   46.3302   10.4948   20.6867 C   0  0  0  0  0  0  0  0  0  0  0  0
   50.3741   13.2255   22.1165 C   0  0  0  0  0  0  0  0  0  0  0  0
   50.3387   14.5829   21.7348 C   0  0  0  0  0  0  0  0  0  0  0  0
   49.6468   16.2764   20.1650 O   0  0  0  0  0  0  0  0  0  0  0  0
   50.1857   13.5950   16.9250 O   0  0  0  0  0  0  0  0  0  0  0  0
   47.1284    8.7445   22.1463 C   0  0  0  0  0  0  0  0  0  0  0  0
   47.9818   11.5232   19.4963 C   0  0  2  0  0  0  0  0  0  0  0  0
   48.9945   12.2809   20.3052 C   0  0  0  0  0  0  0  0  0  0  0  0
   48.5296   10.1107   19.2472 C   0  0  2  0  0  0  0  0  0  0  0  0
   49.0447   13.6021   19.9086 C   0  0  0  0  0  0  0  0  0  0  0  0
   47.9266   12.5040   18.3036 C   0  0  1  0  0  0  0  0  0  0  0  0
   48.2499   13.8405   18.8150 O   0  0  0  0  0  0  0  0  0  0  0  0
   48.7938    9.4932   20.6662 C   0  0  2  0  0  0  0  0  0  0  0  0
   47.5795    9.4918   21.5278 N   0  0  0  0  0  0  0  0  0  0  0  0
   49.8445   11.7594   21.2642 C   0  0  0  0  0  0  0  0  0  0  0  0
   49.7230   10.1104   18.3213 C   0  0  0  0  0  0  0  0  0  0  0  0
   49.9086   10.2654   21.4454 C   0  0  0  0  0  0  0  0  0  0  0  0
   46.6515   11.4590   20.2864 C   0  0  0  0  0  0  0  0  0  0  0  0
   49.8590   11.0330   17.3559 C   0  0  0  0  0  0  0  0  0  0  0  0
   48.8213   12.0933   17.0914 C   0  0  2  0  0  0  0  0  0  0  0  0
   49.8583   14.5179   20.5541 C   0  0  0  0  0  0  0  0  0  0  0  0
   46.3918   10.0745   20.9042 C   0  0  0  0  0  0  0  0  0  0  0  0
   50.6879   12.6558   21.9202 C   0  0  0  0  0  0  0  0  0  0  0  0
   50.6756   14.0277   21.5838 C   0  0  0  0  0  0  0  0  0  0  0  0
   47.2942    8.1654   22.0669 C   0  0  0  0  0  0  0  0  0  0  0  0
   49.4307   13.2209   16.4710 O   0  0  0  0  0  0  0  0  0  0  0  0
   49.8036   15.8086   20.1144 O   0  0  0  0  0  0  0  0  0  0  0  0
   50.6114   16.7570   20.7946 C   0  0  0  0  0  0  0  0  0  0  0  0
   47.9686   12.5893   21.2974 H   0  0  0  0  0  0  0  0  0  0  0  0
   50.7510   16.0657   19.1386 H   0  0  0  0  0  0  0  0  0  0  0  0
   46.0636   12.1974   20.0910 H   0  0  0  0  0  0  0  0  0  0  0  0
   45.6365   11.8143   18.4493 H   0  0  0  0  0  0  0  0  0  0  0  0
   46.7584   10.2804   21.3209 H   0  0  0  0  0  0  0  0  0  0  0  0
   48.6576    8.2396   17.2164 H   0  0  0  0  0  0  0  0  0  0  0  0
   47.6419   10.4474   17.1104 H   0  0  0  0  0  0  0  0  0  0  0  0
   47.8602   14.5050   15.7420 H   0  0  0  0  0  0  0  0  0  0  0  0
   49.5940   15.7158   17.0248 H   0  0  0  0  0  0  0  0  0  0  0  0
   47.9108   13.1615   23.5706 H   0  0  0  0  0  0  0  0  0  0  0  0
   49.0907   11.8474   23.1766 H   0  0  0  0  0  0  0  0  0  0  0  0
   49.2774   12.8215   24.6408 H   0  0  0  0  0  0  0  0  0  0  0  0
   47.6814    9.2780   23.2189 H   0  0  0  0  0  0  0  0  0  0  0  0
   49.2984    9.2299   22.4209 H   0  0  0  0  0  0  0  0  0  0  0  0
   48.7882    7.9239   23.5056 H   0  0  0  0  0  0  0  0  0  0  0  0
   52.7455   17.0107   21.9954 H   0  0  0  0  0  0  0  0  0  0  0  0
   51.4886   17.4674   20.8392 H   0  0  0  0  0  0  0  0  0  0  0  0
   52.7176   16.2075   20.4188 H   0  0  0  0  0  0  0  0  0  0  0  0
   49.6063    5.0319   18.6527 H   0  0  0  0  0  0  0  0  0  0  0  0
   48.4149    5.8883   17.6668 H   0  0  0  0  0  0  0  0  0  0  0  0
   50.0973    6.5238   17.8435 H   0  0  0  0  0  0  0  0  0  0  0  0
   47.9585    9.8223   18.7488 H   0  0  0  0  0  0  0  0  0  0  0  0
   47.2411   12.7926   17.5897 H   0  0  0  0  0  0  0  0  0  0  0  0
   49.1132    8.9141   20.7426 H   0  0  0  0  0  0  0  0  0  0  0  0
   50.6166    9.5943   18.6864 H   0  0  0  0  0  0  0  0  0  0  0  0
   50.7869   10.4684   21.3430 H   0  0  0  0  0  0  0  0  0  0  0  0
   49.6546   10.5662   22.6912 H   0  0  0  0  0  0  0  0  0  0  0  0
   46.4502   12.6531   20.6827 H   0  0  0  0  0  0  0  0  0  0  0  0
   45.8936   11.9389   19.1776 H   0  0  0  0  0  0  0  0  0  0  0  0
   51.1513   11.2290   16.9997 H   0  0  0  0  0  0  0  0  0  0  0  0
   48.8839   12.2078   16.2151 H   0  0  0  0  0  0  0  0  0  0  0  0
   46.0461    9.7438   19.9378 H   0  0  0  0  0  0  0  0  0  0  0  0
   45.4469   10.6425   21.3218 H   0  0  0  0  0  0  0  0  0  0  0  0
   50.9709   12.9253   22.9752 H   0  0  0  0  0  0  0  0  0  0  0  0
   50.9015   15.3031   22.3217 H   0  0  0  0  0  0  0  0  0  0  0  0
   50.1027   16.8162   20.8293 H   0  0  0  0  0  0  0  0  0  0  0  0
   49.7796   14.3568   17.3893 H   0  0  0  0  0  0  0  0  0  0  0  0
   46.9803    7.9383   21.4184 H   0  0  0  0  0  0  0  0  0  0  0  0
   46.2200    8.8375   22.7509 H   0  0  0  0  0  0  0  0  0  0  0  0
   47.9297    8.4504   22.8330 H   0  0  0  0  0  0  0  0  0  0  0  0
   47.7724    9.4994   18.7381 H   0  0  0  0  0  0  0  0  0  0  0  0
   46.9015   12.5848   17.9202 H   0  0  0  0  0  0  0  0  0  0  0  0
   49.1467    8.4625   20.5225 H   0  0  0  0  0  0  0  0  0  0  0  0
   50.4708    9.3292   18.4321 H   0  0  0  0  0  0  0  0  0  0  0  0
   50.8823    9.9274   21.0694 H   0  0  0  0  0  0  0  0  0  0  0  0
   49.8771   10.0162   22.5130 H   0  0  0  0  0  0  0  0  0  0  0  0
   46.6182   12.2182   21.0791 H   0  0  0  0  0  0  0  0  0  0  0  0
   45.8059   11.6735   19.6209 H   0  0  0  0  0  0  0  0  0  0  0  0
   50.7211   10.9817   16.6971 H   0  0  0  0  0  0  0  0  0  0  0  0
   48.1527   11.6620   16.3347 H   0  0  0  0  0  0  0  0  0  0  0  0
   45.9943    9.4065   20.1291 H   0  0  0  0  0  0  0  0  0  0  0  0
   45.5966   10.1835   21.6520 H   0  0  0  0  0  0  0  0  0  0  0  0
   51.3745   12.3002   22.6849 H   0  0  0  0  0  0  0  0  0  0  0  0
   51.3497   14.6804   22.1270 H   0  0  0  0  0  0  0  0  0  0  0  0
   48.1577    7.7780   22.6177 H   0  0  0  0  0  0  0  0  0  0  0  0
   46.4627    8.2063   22.7782 H   0  0  0  0  0  0  0  0  0  0  0  0
   47.0392    7.4503   21.2762 H   0  0  0  0  0  0  0  0  0  0  0  0
   49.9917   12.9035   15.7458 H   0  0  0  0  0  0  0  0  0  0  0  0
   50.3330   16.8292   21.8513 H   0  0  0  0  0  0  0  0  0  0  0  0
   51.6751   16.5217   20.6797 H   0  0  0  0  0  0  0  0  0  0  0  0
   50.4367   17.7353   20.3368 H   0  0  0  0  0  0  0  0  0  0  0  0
  2  1  1  0
  3  1  2  0
  4  1  1  0
  5  3  1  0
  6  7  1  0
  7  4  2  0
  8  2  2  0
  9 12  2  0
 10  2  1  0
 11 14  2  0
 12 13  1  0
 13 10  1  0
 14 15  1  0
 15 13  2  0
 16 21  2  0
 17  5  1  0
 18  6  1  0
 19  9  1  0
 20 11  1  0
 21  4  1  0
 22 17  1  0
 23 19  1  0
 24 18  1  0
 25 20  1  0
 16  8  1  0
  6  5  2  0
 11  9  1  0
 27 26  1  0
 28 26  1  0
 29 27  2  0
 30 26  1  0
 30 31  1  0
 32 28  1  0
 33 27  1  0
 28 34  1  0
 32 35  1  0
 36 41  1  0
 26 37  1  1
 38 39  1  0
 39 30  1  0
 40 29  1  0
 41 37  1  0
 42 33  2  0
 43 42  1  0
 44 40  1  0
 39 45  1  0
 46 36  1  0
 29 31  1  0
 32 36  1  0
 38 34  2  0
 35 33  1  0
 43 40  2  0
 48 47  1  0
 49 47  1  0
 50 48  2  0
 51 47  1  0
 52 51  1  0
 53 49  1  0
 54 62  1  0
 55 48  1  0
 49 56  1  0
 53 57  1  0
 47 58  1  1
 59 60  1  0
 60 51  1  0
 61 50  1  0
 62 58  1  0
 63 55  2  0
 64 63  1  0
 65 54  1  0
 60 66  1  0
 67 61  1  0
 68 67  1  0
 52 50  1  0
 53 54  1  0
 59 56  2  0
 57 55  1  0
 64 61  2  0
  3 69  1  0
  7 70  1  0
 10 71  1  0
 10 72  1  0
 12 73  1  0
 14 74  1  0
 15 75  1  0
 16 76  1  0
 21 77  1  0
 22 78  1  0
 22 79  1  0
 22 80  1  0
 23 81  1  0
 23 82  1  0
 23 83  1  0
 24 84  1  0
 24 85  1  0
 24 86  1  0
 25 87  1  0
 25 88  1  0
 25 89  1  0
 28 90  1  1
 30 91  1  1
 32 92  1  6
 34 93  1  0
 35 94  1  0
 35 95  1  0
 37 96  1  0
 37 97  1  0
 38 98  1  0
 39 99  1  1
 41100  1  0
 41101  1  0
 42102  1  0
 43103  1  0
 44104  1  0
 45105  1  0
 46106  1  0
 46107  1  0
 46108  1  0
 49109  1  1
 51110  1  1
 53111  1  6
 56112  1  0
 57113  1  0
 57114  1  0
 58115  1  0
 58116  1  0
 59117  1  0
 60118  1  1
 62119  1  0
 62120  1  0
 63121  1  0
 64122  1  0
 65123  1  0
 65124  1  0
 65125  1  0
 66126  1  0
 68127  1  0
 68128  1  0
 68129  1  0
M  END
> <Uni-Dock RESULT> 
ENERGY=   -7.467  LOWER_BOUND=    1.212  UPPER_BOUND=    6.531
INTER + INTRA:          -7.467
INTER:                  -7.467
INTRA:                   0.000
UNBOUND:                 0.000

$$$$

     RDKit          3D

129139  0  0  0  0  0  0  0  0999 V2000
   45.5999   11.8316   11.8471 C   0  0  0  0  0  0  0  0  0  0  0  0
   46.1366   13.1382   11.9809 C   0  0  0  0  0  0  0  0  0  0  0  0
   44.2493   11.5313   11.5428 C   0  0  0  0  0  0  0  0  0  0  0  0
   46.4884   10.7523   12.0381 C   0  0  0  0  0  0  0  0  0  0  0  0
   43.7928   10.2116   11.4319 C   0  0  0  0  0  0  0  0  0  0  0  0
   44.6920    9.1492   11.6201 C   0  0  0  0  0  0  0  0  0  0  0  0
   46.0289    9.4286   11.9198 C   0  0  0  0  0  0  0  0  0  0  0  0
   47.4428   13.3774   12.2841 N   0  0  0  0  0  0  0  0  0  0  0  0
   43.5561   15.2060    8.4767 C   0  0  0  0  0  0  0  0  0  0  0  0
   45.3005   14.3885   11.7801 C   0  0  0  0  0  0  0  0  0  0  0  0
   44.6407   15.5023    7.6362 C   0  0  0  0  0  0  0  0  0  0  0  0
   43.7648   14.8634    9.8183 C   0  0  0  0  0  0  0  0  0  0  0  0
   45.0645   14.7552   10.3296 C   0  0  0  0  0  0  0  0  0  0  0  0
   45.9368   15.4043    8.1484 C   0  0  0  0  0  0  0  0  0  0  0  0
   46.1456   15.0328    9.4809 C   0  0  0  0  0  0  0  0  0  0  0  0
   48.2513   12.3165   12.4581 C   0  0  0  0  0  0  0  0  0  0  0  0
   42.4972    9.8586   11.1428 O   0  0  0  0  0  0  0  0  0  0  0  0
   44.1687    7.8862   11.4954 O   0  0  0  0  0  0  0  0  0  0  0  0
   42.2873   15.3352    7.9634 O   0  0  0  0  0  0  0  0  0  0  0  0
   44.3339   15.8514    6.3456 O   0  0  0  0  0  0  0  0  0  0  0  0
   47.8284   11.0072   12.3462 C   0  0  0  0  0  0  0  0  0  0  0  0
   41.5380   10.8982   11.0116 C   0  0  0  0  0  0  0  0  0  0  0  0
   41.4837   14.1766    8.1778 C   0  0  0  0  0  0  0  0  0  0  0  0
   45.0466    6.7854   11.6749 C   0  0  0  0  0  0  0  0  0  0  0  0
   45.3990   16.3036    5.5218 C   0  0  0  0  0  0  0  0  0  0  0  0
   45.2845   13.1846   10.7358 C   0  0  2  0  0  0  0  0  0  0  0  0
   44.6956   11.8085   10.8167 C   0  0  0  0  0  0  0  0  0  0  0  0
   45.2080   13.6826    9.2892 C   0  0  2  0  0  0  0  0  0  0  0  0
   45.3629   11.0534   11.7581 C   0  0  0  0  0  0  0  0  0  0  0  0
   46.6657   12.8143   11.3124 C   0  0  1  0  0  0  0  0  0  0  0  0
   46.4620   11.7084   12.2642 O   0  0  0  0  0  0  0  0  0  0  0  0
   43.6934   13.5847    8.8815 C   0  0  1  0  0  0  0  0  0  0  0  0
   43.6823   11.2910   10.0288 C   0  0  0  0  0  0  0  0  0  0  0  0
   46.1684   12.9719    8.3702 C   0  0  0  0  0  0  0  0  0  0  0  0
   43.1911   12.1031    8.8582 C   0  0  0  0  0  0  0  0  0  0  0  0
   42.8025   14.3249    9.8167 N   0  0  0  0  0  0  0  0  0  0  0  0
   44.4790   14.1302   11.6626 C   0  0  0  0  0  0  0  0  0  0  0  0
   47.2993   12.4082    8.8184 C   0  0  0  0  0  0  0  0  0  0  0  0
   47.7426   12.4191   10.2523 C   0  0  2  0  0  0  0  0  0  0  0  0
   44.9531    9.7725   12.0489 C   0  0  0  0  0  0  0  0  0  0  0  0
   43.4986   15.0310   10.8919 C   0  0  0  0  0  0  0  0  0  0  0  0
   43.2623    9.9863   10.3010 C   0  0  0  0  0  0  0  0  0  0  0  0
   43.8800    9.2391   11.3255 C   0  0  0  0  0  0  0  0  0  0  0  0
   45.6085    9.0455   12.9945 O   0  0  0  0  0  0  0  0  0  0  0  0
   48.3350   11.1456   10.5179 O   0  0  0  0  0  0  0  0  0  0  0  0
   41.8833   15.2098    9.1060 C   0  0  0  0  0  0  0  0  0  0  0  0
   45.1063   13.4557   10.5226 C   0  0  2  0  0  0  0  0  0  0  0  0
   44.6238   12.0361   10.4459 C   0  0  0  0  0  0  0  0  0  0  0  0
   45.1710   14.0160    9.0947 C   0  0  2  0  0  0  0  0  0  0  0  0
   45.2628   11.2530   11.3860 C   0  0  0  0  0  0  0  0  0  0  0  0
   46.4370   13.1595   11.2501 C   0  0  1  0  0  0  0  0  0  0  0  0
   46.2418   11.9471   12.0527 O   0  0  0  0  0  0  0  0  0  0  0  0
   43.7218   13.8729    8.5083 C   0  0  2  0  0  0  0  0  0  0  0  0
   42.6939   14.5533    9.3433 N   0  0  0  0  0  0  0  0  0  0  0  0
   43.7313   11.5148    9.5262 C   0  0  0  0  0  0  0  0  0  0  0  0
   46.2577   13.3676    8.2700 C   0  0  0  0  0  0  0  0  0  0  0  0
   43.2870   12.3766    8.3735 C   0  0  0  0  0  0  0  0  0  0  0  0
   44.1176   14.2782   11.3853 C   0  0  0  0  0  0  0  0  0  0  0  0
   47.3875   12.9137    8.8351 C   0  0  0  0  0  0  0  0  0  0  0  0
   47.6774   13.0606   10.3066 C   0  0  2  0  0  0  0  0  0  0  0  0
   44.9366    9.9178   11.5537 C   0  0  0  0  0  0  0  0  0  0  0  0
   43.2191   15.2013   10.5447 C   0  0  0  0  0  0  0  0  0  0  0  0
   43.3960   10.1676    9.6601 C   0  0  0  0  0  0  0  0  0  0  0  0
   43.9762    9.3832   10.6817 C   0  0  0  0  0  0  0  0  0  0  0  0
   41.8785   15.4770    8.5603 C   0  0  0  0  0  0  0  0  0  0  0  0
   48.5858   12.0462   10.7230 O   0  0  0  0  0  0  0  0  0  0  0  0
   45.5952    9.2413   12.5390 O   0  0  0  0  0  0  0  0  0  0  0  0
   45.2406    7.8812   12.7362 C   0  0  0  0  0  0  0  0  0  0  0  0
   43.5569   12.3494   11.3922 H   0  0  0  0  0  0  0  0  0  0  0  0
   46.7392    8.6208   12.0681 H   0  0  0  0  0  0  0  0  0  0  0  0
   44.3517   14.2846   12.3203 H   0  0  0  0  0  0  0  0  0  0  0  0
   45.8044   15.2387   12.2590 H   0  0  0  0  0  0  0  0  0  0  0  0
   42.9115   14.7010   10.4702 H   0  0  0  0  0  0  0  0  0  0  0  0
   46.8113   15.6072    7.5392 H   0  0  0  0  0  0  0  0  0  0  0  0
   47.1651   14.9680    9.8594 H   0  0  0  0  0  0  0  0  0  0  0  0
   49.2836   12.5526   12.6988 H   0  0  0  0  0  0  0  0  0  0  0  0
   48.5403   10.2019   12.4992 H   0  0  0  0  0  0  0  0  0  0  0  0
   41.4504   11.4764   11.9389 H   0  0  0  0  0  0  0  0  0  0  0  0
   41.7740   11.5468   10.1600 H   0  0  0  0  0  0  0  0  0  0  0  0
   40.5657   10.4347   10.8161 H   0  0  0  0  0  0  0  0  0  0  0  0
   41.0305   14.2055    9.1759 H   0  0  0  0  0  0  0  0  0  0  0  0
   42.0513   13.2469    8.0390 H   0  0  0  0  0  0  0  0  0  0  0  0
   40.6751   14.1900    7.4398 H   0  0  0  0  0  0  0  0  0  0  0  0
   44.4616    5.8679   11.5527 H   0  0  0  0  0  0  0  0  0  0  0  0
   45.4688    6.7758   12.6868 H   0  0  0  0  0  0  0  0  0  0  0  0
   45.8359    6.7822   10.9148 H   0  0  0  0  0  0  0  0  0  0  0  0
   44.9704   16.6108    4.5633 H   0  0  0  0  0  0  0  0  0  0  0  0
   45.8974   17.1748    5.9588 H   0  0  0  0  0  0  0  0  0  0  0  0
   46.1111   15.4964    5.3239 H   0  0  0  0  0  0  0  0  0  0  0  0
   45.5101   14.7383    9.2404 H   0  0  0  0  0  0  0  0  0  0  0  0
   47.0745   13.6497   11.8952 H   0  0  0  0  0  0  0  0  0  0  0  0
   43.5902   13.9901    7.8663 H   0  0  0  0  0  0  0  0  0  0  0  0
   45.9489   12.9548    7.3043 H   0  0  0  0  0  0  0  0  0  0  0  0
   43.5632   11.6296    7.9389 H   0  0  0  0  0  0  0  0  0  0  0  0
   42.0949   12.0689    8.8110 H   0  0  0  0  0  0  0  0  0  0  0  0
   43.9243   13.5681   12.4254 H   0  0  0  0  0  0  0  0  0  0  0  0
   45.1622   14.7950   12.2075 H   0  0  0  0  0  0  0  0  0  0  0  0
   47.9741   11.9299    8.1116 H   0  0  0  0  0  0  0  0  0  0  0  0
   48.5583   13.1539   10.3195 H   0  0  0  0  0  0  0  0  0  0  0  0
   44.0397   15.8989   10.4925 H   0  0  0  0  0  0  0  0  0  0  0  0
   42.7705   15.4290   11.6108 H   0  0  0  0  0  0  0  0  0  0  0  0
   42.4682    9.5334    9.7112 H   0  0  0  0  0  0  0  0  0  0  0  0
   43.5346    8.2262   11.5112 H   0  0  0  0  0  0  0  0  0  0  0  0
   45.1374    8.2070   13.1191 H   0  0  0  0  0  0  0  0  0  0  0  0
   47.9627   10.8444   11.3732 H   0  0  0  0  0  0  0  0  0  0  0  0
   42.4152   16.0085    8.5759 H   0  0  0  0  0  0  0  0  0  0  0  0
   41.1706   15.6685    9.7996 H   0  0  0  0  0  0  0  0  0  0  0  0
   41.2895   14.6450    8.3789 H   0  0  0  0  0  0  0  0  0  0  0  0
   45.4307   15.0828    9.1220 H   0  0  0  0  0  0  0  0  0  0  0  0
   46.6615   13.9506   11.9769 H   0  0  0  0  0  0  0  0  0  0  0  0
   43.7247   14.3068    7.4987 H   0  0  0  0  0  0  0  0  0  0  0  0
   46.1230   13.2920    7.1938 H   0  0  0  0  0  0  0  0  0  0  0  0
   43.7427   11.9710    7.4616 H   0  0  0  0  0  0  0  0  0  0  0  0
   42.2003   12.3000    8.2461 H   0  0  0  0  0  0  0  0  0  0  0  0
   43.4854   13.6265   12.0030 H   0  0  0  0  0  0  0  0  0  0  0  0
   44.6690   14.9210   12.0829 H   0  0  0  0  0  0  0  0  0  0  0  0
   48.1532   12.4755    8.2014 H   0  0  0  0  0  0  0  0  0  0  0  0
   48.2247   14.0078   10.4009 H   0  0  0  0  0  0  0  0  0  0  0  0
   43.7830   16.1056   10.2815 H   0  0  0  0  0  0  0  0  0  0  0  0
   42.3885   15.5322   11.1802 H   0  0  0  0  0  0  0  0  0  0  0  0
   42.6970    9.7070    8.9659 H   0  0  0  0  0  0  0  0  0  0  0  0
   43.6781    8.3426   10.7415 H   0  0  0  0  0  0  0  0  0  0  0  0
   41.4089   14.9591    7.7175 H   0  0  0  0  0  0  0  0  0  0  0  0
   41.0648   15.8868    9.1677 H   0  0  0  0  0  0  0  0  0  0  0  0
   42.4713   16.3109    8.1670 H   0  0  0  0  0  0  0  0  0  0  0  0
   49.3187   12.0139   10.0880 H   0  0  0  0  0  0  0  0  0  0  0  0
   44.1854    7.7828   13.0124 H   0  0  0  0  0  0  0  0  0  0  0  0
   45.4765    7.2811   11.8506 H   0  0  0  0  0  0  0  0  0  0  0  0
   45.8393    7.4960   13.5671 H   0  0  0  0  0  0  0  0  0  0  0  0
  2  1  1  0
  3  1  2  0
  4  1  1  0
  5  3  1  0
  6  7  1  0
  7  4  2  0
  8  2  2  0
  9 12  2  0
 10  2  1  0
 11 14  2  0
 12 13  1  0
 13 10  1  0
 14 15  1  0
 15 13  2  0
 16 21  2  0
 17  5  1  0
 18  6  1  0
 19  9  1  0
 20 11  1  0
 21  4  1  0
 22 17  1  0
 23 19  1  0
 24 18  1  0
 25 20  1  0
 16  8  1  0
  6  5  2  0
 11  9  1  0
 27 26  1  0
 28 26  1  0
 29 27  2  0
 30 26  1  0
 30 31  1  0
 32 28  1  0
 33 27  1  0
 28 34  1  0
 32 35  1  0
 36 41  1  0
 26 37  1  1
 38 39  1  0
 39 30  1  0
 40 29  1  0
 41 37  1  0
 42 33  2  0
 43 42  1  0
 44 40  1  0
 39 45  1  0
 46 36  1  0
 29 31  1  0
 32 36  1  0
 38 34  2  0
 35 33  1  0
 43 40  2  0
 48 47  1  0
 49 47  1  0
 50 48  2  0
 51 47  1  0
 52 51  1  0
 53 49  1  0
 54 62  1  0
 55 48  1  0
 49 56  1  0
 53 57  1  0
 47 58  1  1
 59 60  1  0
 60 51  1  0
 61 50  1  0
 62 58  1  0
 63 55  2  0
 64 63  1  0
 65 54  1  0
 60 66  1  0
 67 61  1  0
 68 67  1  0
 52 50  1  0
 53 54  1  0
 59 56  2  0
 57 55  1  0
 64 61  2  0
  3 69  1  0
  7 70  1  0
 10 71  1  0
 10 72  1  0
 12 73  1  0
 14 74  1  0
 15 75  1  0
 16 76  1  0
 21 77  1  0
 22 78  1  0
 22 79  1  0
 22 80  1  0
 23 81  1  0
 23 82  1  0
 23 83  1  0
 24 84  1  0
 24 85  1  0
 24 86  1  0
 25 87  1  0
 25 88  1  0
 25 89  1  0
 28 90  1  1
 30 91  1  1
 32 92  1  6
 34 93  1  0
 35 94  1  0
 35 95  1  0
 37 96  1  0
 37 97  1  0
 38 98  1  0
 39 99  1  1
 41100  1  0
 41101  1  0
 42102  1  0
 43103  1  0
 44104  1  0
 45105  1  0
 46106  1  0
 46107  1  0
 46108  1  0
 49109  1  1
 51110  1  1
 53111  1  6
 56112  1  0
 57113  1  0
 57114  1  0
 58115  1  0
 58116  1  0
 59117  1  0
 60118  1  1
 62119  1  0
 62120  1  0
 63121  1  0
 64122  1  0
 65123  1  0
 65124  1  0
 65125  1  0
 66126  1  0
 68127  1  0
 68128  1  0
 68129  1  0
M  END
> <Uni-Dock RESULT> 
ENERGY=   -7.184  LOWER_BOUND=    8.123  UPPER_BOUND=   11.086
INTER + INTRA:          -7.184
INTER:                  -7.184
INTRA:                   0.000
UNBOUND:                 0.000

$$$$

     RDKit          3D

129139  0  0  0  0  0  0  0  0999 V2000
   50.8717    4.0109   17.5254 C   0  0  0  0  0  0  0  0  0  0  0  0
   49.8412    4.9170   17.1645 C   0  0  0  0  0  0  0  0  0  0  0  0
   52.1811    4.3797   17.9202 C   0  0  0  0  0  0  0  0  0  0  0  0
   50.5592    2.6358   17.4806 C   0  0  0  0  0  0  0  0  0  0  0  0
   53.1478    3.4236   18.2580 C   0  0  0  0  0  0  0  0  0  0  0  0
   52.8181    2.0591   18.2128 C   0  0  0  0  0  0  0  0  0  0  0  0
   51.5293    1.6784   17.8264 C   0  0  0  0  0  0  0  0  0  0  0  0
   48.5975    4.5137   16.7820 N   0  0  0  0  0  0  0  0  0  0  0  0
   50.9087    8.3466   20.3757 C   0  0  0  0  0  0  0  0  0  0  0  0
   50.0319    6.4222   17.1895 C   0  0  0  0  0  0  0  0  0  0  0  0
   49.7231    8.2402   21.1199 C   0  0  0  0  0  0  0  0  0  0  0  0
   51.0053    7.7761   19.1006 C   0  0  0  0  0  0  0  0  0  0  0  0
   49.9384    7.0402   18.5692 C   0  0  0  0  0  0  0  0  0  0  0  0
   48.6551    7.5149   20.5860 C   0  0  0  0  0  0  0  0  0  0  0  0
   48.7631    6.9198   19.3245 C   0  0  0  0  0  0  0  0  0  0  0  0
   48.3471    3.1923   16.7538 C   0  0  0  0  0  0  0  0  0  0  0  0
   54.4323    3.7193   18.6445 O   0  0  0  0  0  0  0  0  0  0  0  0
   53.8187    1.1847   18.5574 O   0  0  0  0  0  0  0  0  0  0  0  0
   51.9387    9.0877   20.9046 O   0  0  0  0  0  0  0  0  0  0  0  0
   49.7168    8.8531   22.3470 O   0  0  0  0  0  0  0  0  0  0  0  0
   49.2790    2.2309   17.0897 C   0  0  0  0  0  0  0  0  0  0  0  0
   54.8313    5.0827   18.6391 C   0  0  0  0  0  0  0  0  0  0  0  0
   53.1801    8.3856   20.9076 C   0  0  0  0  0  0  0  0  0  0  0  0
   53.5239   -0.2034   18.5277 C   0  0  0  0  0  0  0  0  0  0  0  0
   48.4832    8.8916   23.0502 C   0  0  0  0  0  0  0  0  0  0  0  0
   50.4588    5.4958   18.4142 C   0  0  2  0  0  0  0  0  0  0  0  0
   51.5879    4.5231   18.5765 C   0  0  0  0  0  0  0  0  0  0  0  0
   50.1660    6.1595   19.7633 C   0  0  2  0  0  0  0  0  0  0  0  0
   51.4103    3.4360   17.7468 C   0  0  0  0  0  0  0  0  0  0  0  0
   49.4383    4.4827   17.8579 C   0  0  1  0  0  0  0  0  0  0  0  0
   50.1939    3.4671   17.1044 O   0  0  0  0  0  0  0  0  0  0  0  0
   51.5250    6.7937   20.2331 C   0  0  1  0  0  0  0  0  0  0  0  0
   52.6395    4.6130   19.4717 C   0  0  0  0  0  0  0  0  0  0  0  0
   49.5176    5.2240   20.7515 C   0  0  0  0  0  0  0  0  0  0  0  0
   52.6113    5.7028   20.5122 C   0  0  0  0  0  0  0  0  0  0  0  0
   52.1001    7.7227   19.2220 N   0  0  0  0  0  0  0  0  0  0  0  0
   50.8679    6.5705   17.3752 C   0  0  0  0  0  0  0  0  0  0  0  0
   48.7918    4.1663   20.3615 C   0  0  0  0  0  0  0  0  0  0  0  0
   48.5351    3.7942   18.9303 C   0  0  2  0  0  0  0  0  0  0  0  0
   52.3590    2.4417   17.6805 C   0  0  0  0  0  0  0  0  0  0  0  0
   51.2808    7.9030   18.0237 C   0  0  0  0  0  0  0  0  0  0  0  0
   53.6057    3.6044   19.4280 C   0  0  0  0  0  0  0  0  0  0  0  0
   53.4776    2.5354   18.5168 C   0  0  0  0  0  0  0  0  0  0  0  0
   52.1805    1.3842   16.8425 O   0  0  0  0  0  0  0  0  0  0  0  0
   48.5794    2.3676   18.8534 O   0  0  0  0  0  0  0  0  0  0  0  0
   52.4711    9.0063   19.8118 C   0  0  0  0  0  0  0  0  0  0  0  0
   50.4802    5.8428   18.5869 C   0  0  2  0  0  0  0  0  0  0  0  0
   51.5165    4.8051   18.9079 C   0  0  0  0  0  0  0  0  0  0  0  0
   50.0358    6.4971   19.9027 C   0  0  2  0  0  0  0  0  0  0  0  0
   51.3763    3.7058   18.0851 C   0  0  0  0  0  0  0  0  0  0  0  0
   49.4883    4.8982   17.8716 C   0  0  1  0  0  0  0  0  0  0  0  0
   50.2671    3.8036   17.2820 O   0  0  0  0  0  0  0  0  0  0  0  0
   51.3374    7.0856   20.5538 C   0  0  2  0  0  0  0  0  0  0  0  0
   52.0510    8.0349   19.6557 N   0  0  0  0  0  0  0  0  0  0  0  0
   52.4481    4.8554   19.9296 C   0  0  0  0  0  0  0  0  0  0  0  0
   49.2568    5.5490   20.7835 C   0  0  0  0  0  0  0  0  0  0  0  0
   52.3583    5.9662   20.9429 C   0  0  0  0  0  0  0  0  0  0  0  0
   51.1001    6.8973   17.6373 C   0  0  0  0  0  0  0  0  0  0  0  0
   48.4967    4.5741   20.2606 C   0  0  0  0  0  0  0  0  0  0  0  0
   48.3228    4.3857   18.7756 C   0  0  2  0  0  0  0  0  0  0  0  0
   52.2609    2.6422   18.1461 C   0  0  0  0  0  0  0  0  0  0  0  0
   51.4229    8.2226   18.3484 C   0  0  0  0  0  0  0  0  0  0  0  0
   53.3426    3.7896   20.0263 C   0  0  0  0  0  0  0  0  0  0  0  0
   53.2639    2.7045   19.1252 C   0  0  0  0  0  0  0  0  0  0  0  0
   52.3049    9.3165   20.3071 C   0  0  0  0  0  0  0  0  0  0  0  0
   47.9874    3.0300   18.4972 O   0  0  0  0  0  0  0  0  0  0  0  0
   52.0618    1.6231   17.2607 O   0  0  0  0  0  0  0  0  0  0  0  0
   52.9857    0.5463   17.2976 C   0  0  0  0  0  0  0  0  0  0  0  0
   52.4345    5.4312   17.9606 H   0  0  0  0  0  0  0  0  0  0  0  0
   51.2553    0.6285   17.7860 H   0  0  0  0  0  0  0  0  0  0  0  0
   50.9824    6.6784   16.7060 H   0  0  0  0  0  0  0  0  0  0  0  0
   49.2624    6.8926   16.5629 H   0  0  0  0  0  0  0  0  0  0  0  0
   51.9066    7.9237   18.5130 H   0  0  0  0  0  0  0  0  0  0  0  0
   47.7216    7.3883   21.1243 H   0  0  0  0  0  0  0  0  0  0  0  0
   47.9152    6.3634   18.9267 H   0  0  0  0  0  0  0  0  0  0  0  0
   47.3442    2.9153   16.4429 H   0  0  0  0  0  0  0  0  0  0  0  0
   49.0030    1.1819   17.0443 H   0  0  0  0  0  0  0  0  0  0  0  0
   54.7550    5.5144   17.6343 H   0  0  0  0  0  0  0  0  0  0  0  0
   54.2538    5.6650   19.3665 H   0  0  0  0  0  0  0  0  0  0  0  0
   55.8830    5.1255   18.9400 H   0  0  0  0  0  0  0  0  0  0  0  0
   53.6755    8.4817   19.9339 H   0  0  0  0  0  0  0  0  0  0  0  0
   53.0576    7.3277   21.1749 H   0  0  0  0  0  0  0  0  0  0  0  0
   53.8245    8.8501   21.6610 H   0  0  0  0  0  0  0  0  0  0  0  0
   54.4312   -0.7441   18.8162 H   0  0  0  0  0  0  0  0  0  0  0  0
   53.2521   -0.5295   17.5167 H   0  0  0  0  0  0  0  0  0  0  0  0
   52.7402   -0.4559   19.2508 H   0  0  0  0  0  0  0  0  0  0  0  0
   48.6380    9.4779   23.9608 H   0  0  0  0  0  0  0  0  0  0  0  0
   47.7055    9.3886   22.4617 H   0  0  0  0  0  0  0  0  0  0  0  0
   48.1723    7.8864   23.3511 H   0  0  0  0  0  0  0  0  0  0  0  0
   49.4355    6.9700   19.6310 H   0  0  0  0  0  0  0  0  0  0  0  0
   48.7710    4.9685   17.1344 H   0  0  0  0  0  0  0  0  0  0  0  0
   51.3398    7.3310   21.1727 H   0  0  0  0  0  0  0  0  0  0  0  0
   49.6135    5.4440   21.8130 H   0  0  0  0  0  0  0  0  0  0  0  0
   52.3882    5.2375   21.4825 H   0  0  0  0  0  0  0  0  0  0  0  0
   53.6042    6.1622   20.6018 H   0  0  0  0  0  0  0  0  0  0  0  0
   51.6850    6.2171   16.7325 H   0  0  0  0  0  0  0  0  0  0  0  0
   50.0243    6.7886   16.7073 H   0  0  0  0  0  0  0  0  0  0  0  0
   48.3209    3.5356   21.1126 H   0  0  0  0  0  0  0  0  0  0  0  0
   47.4939    4.0781   18.7176 H   0  0  0  0  0  0  0  0  0  0  0  0
   50.3812    8.4868   18.2593 H   0  0  0  0  0  0  0  0  0  0  0  0
   51.8353    8.4843   17.2754 H   0  0  0  0  0  0  0  0  0  0  0  0
   54.4530    3.6292   20.1099 H   0  0  0  0  0  0  0  0  0  0  0  0
   54.2426    1.7643   18.5087 H   0  0  0  0  0  0  0  0  0  0  0  0
   52.9767    0.8314   16.8710 H   0  0  0  0  0  0  0  0  0  0  0  0
   49.1298    2.1533   18.0710 H   0  0  0  0  0  0  0  0  0  0  0  0
   51.5962    9.5496   20.1877 H   0  0  0  0  0  0  0  0  0  0  0  0
   52.9830    9.6380   19.0781 H   0  0  0  0  0  0  0  0  0  0  0  0
   53.1730    8.8611   20.6403 H   0  0  0  0  0  0  0  0  0  0  0  0
   49.3462    7.3263   19.6949 H   0  0  0  0  0  0  0  0  0  0  0  0
   49.0201    5.4072   17.0194 H   0  0  0  0  0  0  0  0  0  0  0  0
   51.0455    7.6006   21.4796 H   0  0  0  0  0  0  0  0  0  0  0  0
   49.3010    5.6810   21.8617 H   0  0  0  0  0  0  0  0  0  0  0  0
   52.0317    5.5235   21.8921 H   0  0  0  0  0  0  0  0  0  0  0  0
   53.3528    6.3942   21.1181 H   0  0  0  0  0  0  0  0  0  0  0  0
   52.0105    6.5175   17.1548 H   0  0  0  0  0  0  0  0  0  0  0  0
   50.3996    7.1344   16.8267 H   0  0  0  0  0  0  0  0  0  0  0  0
   47.9344    3.9294   20.9300 H   0  0  0  0  0  0  0  0  0  0  0  0
   47.4336    4.9730   18.5112 H   0  0  0  0  0  0  0  0  0  0  0  0
   50.5010    8.8109   18.4428 H   0  0  0  0  0  0  0  0  0  0  0  0
   52.0897    8.8005   17.6967 H   0  0  0  0  0  0  0  0  0  0  0  0
   54.0974    3.7792   20.8092 H   0  0  0  0  0  0  0  0  0  0  0  0
   53.9855    1.9043   19.2442 H   0  0  0  0  0  0  0  0  0  0  0  0
   52.8634    9.1732   21.2380 H   0  0  0  0  0  0  0  0  0  0  0  0
   52.9197    9.9606   19.6698 H   0  0  0  0  0  0  0  0  0  0  0  0
   51.3741    9.8465   20.5403 H   0  0  0  0  0  0  0  0  0  0  0  0
   47.2796    2.7604   19.1037 H   0  0  0  0  0  0  0  0  0  0  0  0
   54.0024    0.8886   17.0772 H   0  0  0  0  0  0  0  0  0  0  0  0
   52.9427    0.0243   18.2598 H   0  0  0  0  0  0  0  0  0  0  0  0
   52.6991   -0.1678   16.5197 H   0  0  0  0  0  0  0  0  0  0  0  0
  2  1  1  0
  3  1  2  0
  4  1  1  0
  5  3  1  0
  6  7  1  0
  7  4  2  0
  8  2  2  0
  9 12  2  0
 10  2  1  0
 11 14  2  0
 12 13  1  0
 13 10  1  0
 14 15  1  0
 15 13  2  0
 16 21  2  0
 17  5  1  0
 18  6  1  0
 19  9  1  0
 20 11  1  0
 21  4  1  0
 22 17  1  0
 23 19  1  0
 24 18  1  0
 25 20  1  0
 16  8  1  0
  6  5  2  0
 11  9  1  0
 27 26  1  0
 28 26  1  0
 29 27  2  0
 30 26  1  0
 30 31  1  0
 32 28  1  0
 33 27  1  0
 28 34  1  0
 32 35  1  0
 36 41  1  0
 26 37  1  1
 38 39  1  0
 39 30  1  0
 40 29  1  0
 41 37  1  0
 42 33  2  0
 43 42  1  0
 44 40  1  0
 39 45  1  0
 46 36  1  0
 29 31  1  0
 32 36  1  0
 38 34  2  0
 35 33  1  0
 43 40  2  0
 48 47  1  0
 49 47  1  0
 50 48  2  0
 51 47  1  0
 52 51  1  0
 53 49  1  0
 54 62  1  0
 55 48  1  0
 49 56  1  0
 53 57  1  0
 47 58  1  1
 59 60  1  0
 60 51  1  0
 61 50  1  0
 62 58  1  0
 63 55  2  0
 64 63  1  0
 65 54  1  0
 60 66  1  0
 67 61  1  0
 68 67  1  0
 52 50  1  0
 53 54  1  0
 59 56  2  0
 57 55  1  0
 64 61  2  0
  3 69  1  0
  7 70  1  0
 10 71  1  0
 10 72  1  0
 12 73  1  0
 14 74  1  0
 15 75  1  0
 16 76  1  0
 21 77  1  0
 22 78  1  0
 22 79  1  0
 22 80  1  0
 23 81  1  0
 23 82  1  0
 23 83  1  0
 24 84  1  0
 24 85  1  0
 24 86  1  0
 25 87  1  0
 25 88  1  0
 25 89  1  0
 28 90  1  1
 30 91  1  1
 32 92  1  6
 34 93  1  0
 35 94  1  0
 35 95  1  0
 37 96  1  0
 37 97  1  0
 38 98  1  0
 39 99  1  1
 41100  1  0
 41101  1  0
 42102  1  0
 43103  1  0
 44104  1  0
 45105  1  0
 46106  1  0
 46107  1  0
 46108  1  0
 49109  1  1
 51110  1  1
 53111  1  6
 56112  1  0
 57113  1  0
 57114  1  0
 58115  1  0
 58116  1  0
 59117  1  0
 60118  1  1
 62119  1  0
 62120  1  0
 63121  1  0
 64122  1  0
 65123  1  0
 65124  1  0
 65125  1  0
 66126  1  0
 68127  1  0
 68128  1  0
 68129  1  0
M  END
> <Uni-Dock RESULT> 
ENERGY=   -7.121  LOWER_BOUND=    3.425  UPPER_BOUND=    6.259
INTER + INTRA:          -7.121
INTER:                  -7.121
INTRA:                   0.000
UNBOUND:                 0.000

$$$$

     RDKit          3D

129139  0  0  0  0  0  0  0  0999 V2000
   46.8861    9.2204   13.2368 C   0  0  0  0  0  0  0  0  0  0  0  0
   47.6705    8.4924   14.1684 C   0  0  0  0  0  0  0  0  0  0  0  0
   46.9739   10.6161   13.0108 C   0  0  0  0  0  0  0  0  0  0  0  0
   45.9441    8.4884   12.4834 C   0  0  0  0  0  0  0  0  0  0  0  0
   46.1593   11.2655   12.0741 C   0  0  0  0  0  0  0  0  0  0  0  0
   45.2304   10.5206   11.3292 C   0  0  0  0  0  0  0  0  0  0  0  0
   45.1322    9.1417   11.5394 C   0  0  0  0  0  0  0  0  0  0  0  0
   47.5435    7.1494   14.3574 N   0  0  0  0  0  0  0  0  0  0  0  0
   51.7678   10.9509   13.5505 C   0  0  0  0  0  0  0  0  0  0  0  0
   48.7357    9.1483   15.0273 C   0  0  0  0  0  0  0  0  0  0  0  0
   52.5104    9.8873   13.0139 C   0  0  0  0  0  0  0  0  0  0  0  0
   50.5586   10.7139   14.2157 C   0  0  0  0  0  0  0  0  0  0  0  0
   50.0410    9.4154   14.3070 C   0  0  0  0  0  0  0  0  0  0  0  0
   51.9995    8.5908   13.1135 C   0  0  0  0  0  0  0  0  0  0  0  0
   50.7766    8.3584   13.7520 C   0  0  0  0  0  0  0  0  0  0  0  0
   46.6312    6.4947   13.6166 C   0  0  0  0  0  0  0  0  0  0  0  0
   46.1961   12.6137   11.8137 O   0  0  0  0  0  0  0  0  0  0  0  0
   44.4693   11.2285   10.4324 O   0  0  0  0  0  0  0  0  0  0  0  0
   52.2995   12.2160   13.4680 O   0  0  0  0  0  0  0  0  0  0  0  0
   53.6935   10.2171   12.4031 O   0  0  0  0  0  0  0  0  0  0  0  0
   45.8226    7.1095   12.6818 C   0  0  0  0  0  0  0  0  0  0  0  0
   47.0720   13.4176   12.5913 C   0  0  0  0  0  0  0  0  0  0  0  0
   51.3857   13.1651   12.9219 C   0  0  0  0  0  0  0  0  0  0  0  0
   43.5210   10.5108    9.6576 C   0  0  0  0  0  0  0  0  0  0  0  0
   54.5340    9.1491   11.9903 C   0  0  0  0  0  0  0  0  0  0  0  0
   48.6422    9.4020   13.4566 C   0  0  2  0  0  0  0  0  0  0  0  0
   47.6592   10.1788   12.6335 C   0  0  0  0  0  0  0  0  0  0  0  0
   50.0270    9.4921   12.8079 C   0  0  2  0  0  0  0  0  0  0  0  0
   46.4208    9.5729   12.6633 C   0  0  0  0  0  0  0  0  0  0  0  0
   47.8904    8.0572   13.3977 C   0  0  1  0  0  0  0  0  0  0  0  0
   46.4514    8.3618   13.3157 O   0  0  0  0  0  0  0  0  0  0  0  0
   50.3394   11.0267   12.6755 C   0  0  1  0  0  0  0  0  0  0  0  0
   47.9206   11.3021   11.8686 C   0  0  0  0  0  0  0  0  0  0  0  0
   50.1304    8.7023   11.5282 C   0  0  0  0  0  0  0  0  0  0  0  0
   49.3521   11.7395   11.6932 C   0  0  0  0  0  0  0  0  0  0  0  0
   50.2411   11.7426   13.9770 N   0  0  0  0  0  0  0  0  0  0  0  0
   48.6880   10.0042   14.8839 C   0  0  0  0  0  0  0  0  0  0  0  0
   49.3500    7.6405   11.2806 C   0  0  0  0  0  0  0  0  0  0  0  0
   48.3077    7.1148   12.2240 C   0  0  2  0  0  0  0  0  0  0  0  0
   45.3437   10.1463   12.0275 C   0  0  0  0  0  0  0  0  0  0  0  0
   49.9248   10.8878   15.1210 C   0  0  0  0  0  0  0  0  0  0  0  0
   46.8409   11.8902   11.2045 C   0  0  0  0  0  0  0  0  0  0  0  0
   45.5516   11.3271   11.3050 C   0  0  0  0  0  0  0  0  0  0  0  0
   44.1226    9.5479   12.0816 O   0  0  0  0  0  0  0  0  0  0  0  0
   47.1945    6.6990   11.4296 O   0  0  0  0  0  0  0  0  0  0  0  0
   51.4202   12.5645   14.2360 C   0  0  0  0  0  0  0  0  0  0  0  0
   48.9941    9.5514   13.5240 C   0  0  2  0  0  0  0  0  0  0  0  0
   48.0870   10.2389   12.5451 C   0  0  0  0  0  0  0  0  0  0  0  0
   50.4006    9.4919   12.9114 C   0  0  2  0  0  0  0  0  0  0  0  0
   46.8316    9.6651   12.5584 C   0  0  0  0  0  0  0  0  0  0  0  0
   48.1893    8.2366   13.6297 C   0  0  1  0  0  0  0  0  0  0  0  0
   46.7820    8.5573   13.3677 O   0  0  0  0  0  0  0  0  0  0  0  0
   50.8053   10.9791   12.6132 C   0  0  2  0  0  0  0  0  0  0  0  0
   50.7447   11.8451   13.8228 N   0  0  0  0  0  0  0  0  0  0  0  0
   48.4327   11.2514   11.6678 C   0  0  0  0  0  0  0  0  0  0  0  0
   50.4727    8.5626   11.7229 C   0  0  0  0  0  0  0  0  0  0  0  0
   49.8832   11.6342   11.5330 C   0  0  0  0  0  0  0  0  0  0  0  0
   49.0107   10.3563   14.8469 C   0  0  0  0  0  0  0  0  0  0  0  0
   49.6857    7.4789   11.6340 C   0  0  0  0  0  0  0  0  0  0  0  0
   48.7205    7.0828   12.7214 C   0  0  2  0  0  0  0  0  0  0  0  0
   45.7996   10.1713   11.7863 C   0  0  0  0  0  0  0  0  0  0  0  0
   50.3081   11.1600   15.0390 C   0  0  0  0  0  0  0  0  0  0  0  0
   47.4171   11.7703   10.8650 C   0  0  0  0  0  0  0  0  0  0  0  0
   46.1061   11.2499   10.9430 C   0  0  0  0  0  0  0  0  0  0  0  0
   51.9965   12.5632   14.0434 C   0  0  0  0  0  0  0  0  0  0  0  0
   47.6615    6.3081   12.1679 O   0  0  0  0  0  0  0  0  0  0  0  0
   44.5852    9.5600   11.9032 O   0  0  0  0  0  0  0  0  0  0  0  0
   43.5164   10.0961   11.1384 C   0  0  0  0  0  0  0  0  0  0  0  0
   47.6932   11.1900   13.5805 H   0  0  0  0  0  0  0  0  0  0  0  0
   44.4207    8.5487   10.9727 H   0  0  0  0  0  0  0  0  0  0  0  0
   48.3338   10.0679   15.4695 H   0  0  0  0  0  0  0  0  0  0  0  0
   48.9572    8.4982   15.8843 H   0  0  0  0  0  0  0  0  0  0  0  0
   50.0304   11.5409   14.6809 H   0  0  0  0  0  0  0  0  0  0  0  0
   52.5242    7.7343   12.7033 H   0  0  0  0  0  0  0  0  0  0  0  0
   50.4008    7.3382   13.8220 H   0  0  0  0  0  0  0  0  0  0  0  0
   46.5629    5.4265   13.7997 H   0  0  0  0  0  0  0  0  0  0  0  0
   45.1094    6.5143   12.1199 H   0  0  0  0  0  0  0  0  0  0  0  0
   46.8186   13.3643   13.6565 H   0  0  0  0  0  0  0  0  0  0  0  0
   48.1185   13.1415   12.4177 H   0  0  0  0  0  0  0  0  0  0  0  0
   46.9457   14.4570   12.2715 H   0  0  0  0  0  0  0  0  0  0  0  0
   50.7201   13.5485   13.7046 H   0  0  0  0  0  0  0  0  0  0  0  0
   50.8025   12.7481   12.0902 H   0  0  0  0  0  0  0  0  0  0  0  0
   51.9698   14.0061   12.5344 H   0  0  0  0  0  0  0  0  0  0  0  0
   43.0029   11.2293    9.0140 H   0  0  0  0  0  0  0  0  0  0  0  0
   42.7670   10.0344   10.2952 H   0  0  0  0  0  0  0  0  0  0  0  0
   44.0147    9.7775    9.0100 H   0  0  0  0  0  0  0  0  0  0  0  0
   55.4580    9.5854   11.5996 H   0  0  0  0  0  0  0  0  0  0  0  0
   54.8004    8.5040   12.8336 H   0  0  0  0  0  0  0  0  0  0  0  0
   54.0699    8.5751   11.1823 H   0  0  0  0  0  0  0  0  0  0  0  0
   50.7805    9.0433   13.4703 H   0  0  0  0  0  0  0  0  0  0  0  0
   48.0330    7.4969   14.3307 H   0  0  0  0  0  0  0  0  0  0  0  0
   51.3532   11.1306   12.2667 H   0  0  0  0  0  0  0  0  0  0  0  0
   50.8924    8.9857   10.8046 H   0  0  0  0  0  0  0  0  0  0  0  0
   49.6560   11.4962   10.6655 H   0  0  0  0  0  0  0  0  0  0  0  0
   49.4269   12.8298   11.7961 H   0  0  0  0  0  0  0  0  0  0  0  0
   47.7841   10.5879   15.1025 H   0  0  0  0  0  0  0  0  0  0  0  0
   48.7224    9.2001   15.6307 H   0  0  0  0  0  0  0  0  0  0  0  0
   49.4810    7.0862   10.3537 H   0  0  0  0  0  0  0  0  0  0  0  0
   48.7241    6.1984   12.6674 H   0  0  0  0  0  0  0  0  0  0  0  0
   50.7835   10.2512   15.3723 H   0  0  0  0  0  0  0  0  0  0  0  0
   49.7324   11.5057   16.0079 H   0  0  0  0  0  0  0  0  0  0  0  0
   46.9930   12.7757   10.5910 H   0  0  0  0  0  0  0  0  0  0  0  0
   44.7327   11.8044   10.7744 H   0  0  0  0  0  0  0  0  0  0  0  0
   43.4765   10.1276   11.6491 H   0  0  0  0  0  0  0  0  0  0  0  0
   46.3957    7.0590   11.8693 H   0  0  0  0  0  0  0  0  0  0  0  0
   52.3244   11.9549   14.3488 H   0  0  0  0  0  0  0  0  0  0  0  0
   51.2873   13.1599   15.1455 H   0  0  0  0  0  0  0  0  0  0  0  0
   51.5804   13.2767   13.4191 H   0  0  0  0  0  0  0  0  0  0  0  0
   51.1101    9.0787   13.6410 H   0  0  0  0  0  0  0  0  0  0  0  0
   48.2090    7.8561   14.6590 H   0  0  0  0  0  0  0  0  0  0  0  0
   51.8287   10.9739   12.2128 H   0  0  0  0  0  0  0  0  0  0  0  0
   51.1962    8.7714   10.9387 H   0  0  0  0  0  0  0  0  0  0  0  0
   50.2244   11.2980   10.5458 H   0  0  0  0  0  0  0  0  0  0  0  0
   49.9852   12.7261   11.5487 H   0  0  0  0  0  0  0  0  0  0  0  0
   48.1525   11.0382   14.9128 H   0  0  0  0  0  0  0  0  0  0  0  0
   48.9285    9.6763   15.7041 H   0  0  0  0  0  0  0  0  0  0  0  0
   49.7869    6.8246   10.7729 H   0  0  0  0  0  0  0  0  0  0  0  0
   49.2816    6.3989   13.3718 H   0  0  0  0  0  0  0  0  0  0  0  0
   51.0934   10.4874   15.4075 H   0  0  0  0  0  0  0  0  0  0  0  0
   50.1345   11.8939   15.8355 H   0  0  0  0  0  0  0  0  0  0  0  0
   47.6327   12.5694   10.1596 H   0  0  0  0  0  0  0  0  0  0  0  0
   45.3550   11.6920   10.2982 H   0  0  0  0  0  0  0  0  0  0  0  0
   52.2647   13.1528   13.1606 H   0  0  0  0  0  0  0  0  0  0  0  0
   51.8970   13.2706   14.8733 H   0  0  0  0  0  0  0  0  0  0  0  0
   52.8241   11.8801   14.2676 H   0  0  0  0  0  0  0  0  0  0  0  0
   48.0490    5.6272   11.5954 H   0  0  0  0  0  0  0  0  0  0  0  0
   43.3131   11.1358   11.4158 H   0  0  0  0  0  0  0  0  0  0  0  0
   43.7161   10.0037   10.0652 H   0  0  0  0  0  0  0  0  0  0  0  0
   42.6190    9.5109   11.3605 H   0  0  0  0  0  0  0  0  0  0  0  0
  2  1  1  0
  3  1  2  0
  4  1  1  0
  5  3  1  0
  6  7  1  0
  7  4  2  0
  8  2  2  0
  9 12  2  0
 10  2  1  0
 11 14  2  0
 12 13  1  0
 13 10  1  0
 14 15  1  0
 15 13  2  0
 16 21  2  0
 17  5  1  0
 18  6  1  0
 19  9  1  0
 20 11  1  0
 21  4  1  0
 22 17  1  0
 23 19  1  0
 24 18  1  0
 25 20  1  0
 16  8  1  0
  6  5  2  0
 11  9  1  0
 27 26  1  0
 28 26  1  0
 29 27  2  0
 30 26  1  0
 30 31  1  0
 32 28  1  0
 33 27  1  0
 28 34  1  0
 32 35  1  0
 36 41  1  0
 26 37  1  1
 38 39  1  0
 39 30  1  0
 40 29  1  0
 41 37  1  0
 42 33  2  0
 43 42  1  0
 44 40  1  0
 39 45  1  0
 46 36  1  0
 29 31  1  0
 32 36  1  0
 38 34  2  0
 35 33  1  0
 43 40  2  0
 48 47  1  0
 49 47  1  0
 50 48  2  0
 51 47  1  0
 52 51  1  0
 53 49  1  0
 54 62  1  0
 55 48  1  0
 49 56  1  0
 53 57  1  0
 47 58  1  1
 59 60  1  0
 60 51  1  0
 61 50  1  0
 62 58  1  0
 63 55  2  0
 64 63  1  0
 65 54  1  0
 60 66  1  0
 67 61  1  0
 68 67  1  0
 52 50  1  0
 53 54  1  0
 59 56  2  0
 57 55  1  0
 64 61  2  0
  3 69  1  0
  7 70  1  0
 10 71  1  0
 10 72  1  0
 12 73  1  0
 14 74  1  0
 15 75  1  0
 16 76  1  0
 21 77  1  0
 22 78  1  0
 22 79  1  0
 22 80  1  0
 23 81  1  0
 23 82  1  0
 23 83  1  0
 24 84  1  0
 24 85  1  0
 24 86  1  0
 25 87  1  0
 25 88  1  0
 25 89  1  0
 28 90  1  1
 30 91  1  1
 32 92  1  6
 34 93  1  0
 35 94  1  0
 35 95  1  0
 37 96  1  0
 37 97  1  0
 38 98  1  0
 39 99  1  1
 41100  1  0
 41101  1  0
 42102  1  0
 43103  1  0
 44104  1  0
 45105  1  0
 46106  1  0
 46107  1  0
 46108  1  0
 49109  1  1
 51110  1  1
 53111  1  6
 56112  1  0
 57113  1  0
 57114  1  0
 58115  1  0
 58116  1  0
 59117  1  0
 60118  1  1
 62119  1  0
 62120  1  0
 63121  1  0
 64122  1  0
 65123  1  0
 65124  1  0
 65125  1  0
 66126  1  0
 68127  1  0
 68128  1  0
 68129  1  0
M  END
> <Uni-Dock RESULT> 
ENERGY=   -7.038  LOWER_BOUND=    6.012  UPPER_BOUND=    8.399
INTER + INTRA:          -7.038
INTER:                  -7.038
INTRA:                   0.000
UNBOUND:                 0.000

$$$$

     RDKit          3D

129139  0  0  0  0  0  0  0  0999 V2000
   47.9194    8.5571   18.7030 C   0  0  0  0  0  0  0  0  0  0  0  0
   48.0008    7.2098   18.2656 C   0  0  0  0  0  0  0  0  0  0  0  0
   47.5651    8.9704   20.0108 C   0  0  0  0  0  0  0  0  0  0  0  0
   48.2124    9.5573   17.7520 C   0  0  0  0  0  0  0  0  0  0  0  0
   47.5019   10.3241   20.3661 C   0  0  0  0  0  0  0  0  0  0  0  0
   47.8016   11.3066   19.4082 C   0  0  0  0  0  0  0  0  0  0  0  0
   48.1544   10.9151   18.1130 C   0  0  0  0  0  0  0  0  0  0  0  0
   48.3377    6.8610   16.9927 N   0  0  0  0  0  0  0  0  0  0  0  0
   49.7938    5.3657   22.3397 C   0  0  0  0  0  0  0  0  0  0  0  0
   47.7342    6.0346   19.1878 C   0  0  0  0  0  0  0  0  0  0  0  0
   51.0327    4.9781   21.8054 C   0  0  0  0  0  0  0  0  0  0  0  0
   48.7229    5.6903   21.4979 C   0  0  0  0  0  0  0  0  0  0  0  0
   48.8873    5.6884   20.1068 C   0  0  0  0  0  0  0  0  0  0  0  0
   51.1942    4.9663   20.4177 C   0  0  0  0  0  0  0  0  0  0  0  0
   50.1326    5.3196   19.5780 C   0  0  0  0  0  0  0  0  0  0  0  0
   48.6074    7.8497   16.1213 C   0  0  0  0  0  0  0  0  0  0  0  0
   47.1621   10.7854   21.6145 O   0  0  0  0  0  0  0  0  0  0  0  0
   47.7169   12.6093   19.8329 O   0  0  0  0  0  0  0  0  0  0  0  0
   49.6448    5.3442   23.7062 O   0  0  0  0  0  0  0  0  0  0  0  0
   52.0123    4.6554   22.7098 O   0  0  0  0  0  0  0  0  0  0  0  0
   48.5603    9.1900   16.4483 C   0  0  0  0  0  0  0  0  0  0  0  0
   46.7848    9.8306   22.5964 C   0  0  0  0  0  0  0  0  0  0  0  0
   49.1251    6.5668   24.2249 C   0  0  0  0  0  0  0  0  0  0  0  0
   48.0157   13.6319   18.8950 C   0  0  0  0  0  0  0  0  0  0  0  0
   53.2210    4.1141   22.1962 C   0  0  0  0  0  0  0  0  0  0  0  0
   48.6962    7.2349   19.6050 C   0  0  2  0  0  0  0  0  0  0  0  0
   48.4039    8.6561   19.9819 C   0  0  0  0  0  0  0  0  0  0  0  0
   49.9156    6.7442   20.3917 C   0  0  2  0  0  0  0  0  0  0  0  0
   47.9181    9.3525   18.8954 C   0  0  0  0  0  0  0  0  0  0  0  0
   48.8521    7.4873   18.0920 C   0  0  1  0  0  0  0  0  0  0  0  0
   47.9619    8.6070   17.7397 O   0  0  0  0  0  0  0  0  0  0  0  0
   49.5671    6.9699   21.9075 C   0  0  1  0  0  0  0  0  0  0  0  0
   48.6433    9.2570   21.2054 C   0  0  0  0  0  0  0  0  0  0  0  0
   51.2062    7.3704   19.9286 C   0  0  0  0  0  0  0  0  0  0  0  0
   49.4117    8.4886   22.2496 C   0  0  0  0  0  0  0  0  0  0  0  0
   48.2939    6.3084   22.3041 N   0  0  0  0  0  0  0  0  0  0  0  0
   47.4621    6.3615   19.9458 C   0  0  0  0  0  0  0  0  0  0  0  0
   51.3653    7.8366   18.6816 C   0  0  0  0  0  0  0  0  0  0  0  0
   50.3090    7.7891   17.6165 C   0  0  2  0  0  0  0  0  0  0  0  0
   47.5210   10.6637   19.0229 C   0  0  0  0  0  0  0  0  0  0  0  0
   47.6444    5.5465   21.2378 C   0  0  0  0  0  0  0  0  0  0  0  0
   48.2588   10.5928   21.3489 C   0  0  0  0  0  0  0  0  0  0  0  0
   47.6761   11.2856   20.2673 C   0  0  0  0  0  0  0  0  0  0  0  0
   47.0247   11.3332   17.9469 O   0  0  0  0  0  0  0  0  0  0  0  0
   50.4048    9.0080   16.8760 O   0  0  0  0  0  0  0  0  0  0  0  0
   48.4526    5.5041   23.5129 C   0  0  0  0  0  0  0  0  0  0  0  0
   48.7895    6.9798   19.8823 C   0  0  2  0  0  0  0  0  0  0  0  0
   48.6879    8.4350   20.2368 C   0  0  0  0  0  0  0  0  0  0  0  0
   50.0562    6.4151   20.5408 C   0  0  2  0  0  0  0  0  0  0  0  0
   48.1911    9.1618   19.1737 C   0  0  0  0  0  0  0  0  0  0  0  0
   48.7855    7.1626   18.3480 C   0  0  1  0  0  0  0  0  0  0  0  0
   48.0352    8.3877   18.0507 O   0  0  0  0  0  0  0  0  0  0  0  0
   49.8979    6.6800   22.0800 C   0  0  2  0  0  0  0  0  0  0  0  0
   48.6509    6.0897   22.6399 N   0  0  0  0  0  0  0  0  0  0  0  0
   49.1004    9.0295   21.4161 C   0  0  0  0  0  0  0  0  0  0  0  0
   51.3205    6.9685   19.9269 C   0  0  0  0  0  0  0  0  0  0  0  0
   49.8730    8.2077   22.4143 C   0  0  0  0  0  0  0  0  0  0  0  0
   47.5308    6.2445   20.4052 C   0  0  0  0  0  0  0  0  0  0  0  0
   51.3716    7.3254   18.6340 C   0  0  0  0  0  0  0  0  0  0  0  0
   50.2045    7.1554   17.6960 C   0  0  2  0  0  0  0  0  0  0  0  0
   47.9440   10.5200   19.2818 C   0  0  0  0  0  0  0  0  0  0  0  0
   47.8122    5.4003   21.6598 C   0  0  0  0  0  0  0  0  0  0  0  0
   48.8795   10.4004   21.5473 C   0  0  0  0  0  0  0  0  0  0  0  0
   48.2832   11.1334   20.4972 C   0  0  0  0  0  0  0  0  0  0  0  0
   48.9206    5.2379   23.7944 C   0  0  0  0  0  0  0  0  0  0  0  0
   50.3053    8.0895   16.6259 O   0  0  0  0  0  0  0  0  0  0  0  0
   47.4121   11.1388   18.1880 O   0  0  0  0  0  0  0  0  0  0  0  0
   47.1267   12.5243   18.3054 C   0  0  0  0  0  0  0  0  0  0  0  0
   47.3393    8.2138   20.7511 H   0  0  0  0  0  0  0  0  0  0  0  0
   48.3902   11.6599   17.3589 H   0  0  0  0  0  0  0  0  0  0  0  0
   46.8162    6.2189   19.7589 H   0  0  0  0  0  0  0  0  0  0  0  0
   47.5144    5.1451   18.5825 H   0  0  0  0  0  0  0  0  0  0  0  0
   47.7537    5.9248   21.9280 H   0  0  0  0  0  0  0  0  0  0  0  0
   52.1342    4.6896   19.9519 H   0  0  0  0  0  0  0  0  0  0  0  0
   50.2806    5.2980   18.4989 H   0  0  0  0  0  0  0  0  0  0  0  0
   48.8707    7.5272   15.1184 H   0  0  0  0  0  0  0  0  0  0  0  0
   48.7926    9.9322   15.6908 H   0  0  0  0  0  0  0  0  0  0  0  0
   45.9026    9.2625   22.2790 H   0  0  0  0  0  0  0  0  0  0  0  0
   47.6204    9.1639   22.8391 H   0  0  0  0  0  0  0  0  0  0  0  0
   46.5190   10.3748   23.5084 H   0  0  0  0  0  0  0  0  0  0  0  0
   48.0308    6.5771   24.1544 H   0  0  0  0  0  0  0  0  0  0  0  0
   49.5519    7.4450   23.7226 H   0  0  0  0  0  0  0  0  0  0  0  0
   49.3952    6.6214   25.2845 H   0  0  0  0  0  0  0  0  0  0  0  0
   47.8858   14.5955   19.3984 H   0  0  0  0  0  0  0  0  0  0  0  0
   47.3224   13.6063   18.0460 H   0  0  0  0  0  0  0  0  0  0  0  0
   49.0571   13.5677   18.5598 H   0  0  0  0  0  0  0  0  0  0  0  0
   53.8522    3.8437   23.0479 H   0  0  0  0  0  0  0  0  0  0  0  0
   53.0346    3.2041   21.6170 H   0  0  0  0  0  0  0  0  0  0  0  0
   53.7628    4.8579   21.6039 H   0  0  0  0  0  0  0  0  0  0  0  0
   50.0579    5.6668   20.2279 H   0  0  0  0  0  0  0  0  0  0  0  0
   48.4965    6.6206   17.5200 H   0  0  0  0  0  0  0  0  0  0  0  0
   50.3974    6.5740   22.5072 H   0  0  0  0  0  0  0  0  0  0  0  0
   52.0435    7.4054   20.6230 H   0  0  0  0  0  0  0  0  0  0  0  0
   50.4163    8.9283   22.3211 H   0  0  0  0  0  0  0  0  0  0  0  0
   48.9395    8.6156   23.2324 H   0  0  0  0  0  0  0  0  0  0  0  0
   46.5517    6.9691   20.0316 H   0  0  0  0  0  0  0  0  0  0  0  0
   47.2759    5.6416   19.1380 H   0  0  0  0  0  0  0  0  0  0  0  0
   52.3251    8.2556   18.3867 H   0  0  0  0  0  0  0  0  0  0  0  0
   50.6033    6.9879   16.9228 H   0  0  0  0  0  0  0  0  0  0  0  0
   48.2157    4.6356   21.0154 H   0  0  0  0  0  0  0  0  0  0  0  0
   46.6521    5.2121   21.5679 H   0  0  0  0  0  0  0  0  0  0  0  0
   48.4240   11.1109   22.2911 H   0  0  0  0  0  0  0  0  0  0  0  0
   47.3910   12.3243   20.4078 H   0  0  0  0  0  0  0  0  0  0  0  0
   46.7274   12.2086   18.2396 H   0  0  0  0  0  0  0  0  0  0  0  0
   49.4879    9.3402   16.7772 H   0  0  0  0  0  0  0  0  0  0  0  0
   49.1377    4.6629   23.3550 H   0  0  0  0  0  0  0  0  0  0  0  0
   47.4874    5.1079   23.8459 H   0  0  0  0  0  0  0  0  0  0  0  0
   48.8374    6.1167   24.3355 H   0  0  0  0  0  0  0  0  0  0  0  0
   50.1110    5.3301   20.3791 H   0  0  0  0  0  0  0  0  0  0  0  0
   48.2181    6.3559   17.8667 H   0  0  0  0  0  0  0  0  0  0  0  0
   50.7719    6.2468   22.5861 H   0  0  0  0  0  0  0  0  0  0  0  0
   52.2090    7.0545   20.5473 H   0  0  0  0  0  0  0  0  0  0  0  0
   50.9077    8.5726   22.4141 H   0  0  0  0  0  0  0  0  0  0  0  0
   49.4777    8.3760   23.4235 H   0  0  0  0  0  0  0  0  0  0  0  0
   46.7154    6.9478   20.6208 H   0  0  0  0  0  0  0  0  0  0  0  0
   47.1488    5.5577   19.6395 H   0  0  0  0  0  0  0  0  0  0  0  0
   52.3080    7.6969   18.2275 H   0  0  0  0  0  0  0  0  0  0  0  0
   50.3402    6.1654   17.2411 H   0  0  0  0  0  0  0  0  0  0  0  0
   48.2727    4.4514   21.3558 H   0  0  0  0  0  0  0  0  0  0  0  0
   46.8481    5.1413   22.1144 H   0  0  0  0  0  0  0  0  0  0  0  0
   49.1816   10.9181   22.4547 H   0  0  0  0  0  0  0  0  0  0  0  0
   48.1324   12.1956   20.6535 H   0  0  0  0  0  0  0  0  0  0  0  0
   49.4641    5.7931   24.5660 H   0  0  0  0  0  0  0  0  0  0  0  0
   47.9860    4.8989   24.2532 H   0  0  0  0  0  0  0  0  0  0  0  0
   49.5123    4.3565   23.5211 H   0  0  0  0  0  0  0  0  0  0  0  0
   51.2111    8.0592   16.2792 H   0  0  0  0  0  0  0  0  0  0  0  0
   46.3913   12.7119   19.0949 H   0  0  0  0  0  0  0  0  0  0  0  0
   48.0428   13.1016   18.4713 H   0  0  0  0  0  0  0  0  0  0  0  0
   46.6912   12.8579   17.3588 H   0  0  0  0  0  0  0  0  0  0  0  0
  2  1  1  0
  3  1  2  0
  4  1  1  0
  5  3  1  0
  6  7  1  0
  7  4  2  0
  8  2  2  0
  9 12  2  0
 10  2  1  0
 11 14  2  0
 12 13  1  0
 13 10  1  0
 14 15  1  0
 15 13  2  0
 16 21  2  0
 17  5  1  0
 18  6  1  0
 19  9  1  0
 20 11  1  0
 21  4  1  0
 22 17  1  0
 23 19  1  0
 24 18  1  0
 25 20  1  0
 16  8  1  0
  6  5  2  0
 11  9  1  0
 27 26  1  0
 28 26  1  0
 29 27  2  0
 30 26  1  0
 30 31  1  0
 32 28  1  0
 33 27  1  0
 28 34  1  0
 32 35  1  0
 36 41  1  0
 26 37  1  1
 38 39  1  0
 39 30  1  0
 40 29  1  0
 41 37  1  0
 42 33  2  0
 43 42  1  0
 44 40  1  0
 39 45  1  0
 46 36  1  0
 29 31  1  0
 32 36  1  0
 38 34  2  0
 35 33  1  0
 43 40  2  0
 48 47  1  0
 49 47  1  0
 50 48  2  0
 51 47  1  0
 52 51  1  0
 53 49  1  0
 54 62  1  0
 55 48  1  0
 49 56  1  0
 53 57  1  0
 47 58  1  1
 59 60  1  0
 60 51  1  0
 61 50  1  0
 62 58  1  0
 63 55  2  0
 64 63  1  0
 65 54  1  0
 60 66  1  0
 67 61  1  0
 68 67  1  0
 52 50  1  0
 53 54  1  0
 59 56  2  0
 57 55  1  0
 64 61  2  0
  3 69  1  0
  7 70  1  0
 10 71  1  0
 10 72  1  0
 12 73  1  0
 14 74  1  0
 15 75  1  0
 16 76  1  0
 21 77  1  0
 22 78  1  0
 22 79  1  0
 22 80  1  0
 23 81  1  0
 23 82  1  0
 23 83  1  0
 24 84  1  0
 24 85  1  0
 24 86  1  0
 25 87  1  0
 25 88  1  0
 25 89  1  0
 28 90  1  1
 30 91  1  1
 32 92  1  6
 34 93  1  0
 35 94  1  0
 35 95  1  0
 37 96  1  0
 37 97  1  0
 38 98  1  0
 39 99  1  1
 41100  1  0
 41101  1  0
 42102  1  0
 43103  1  0
 44104  1  0
 45105  1  0
 46106  1  0
 46107  1  0
 46108  1  0
 49109  1  1
 51110  1  1
 53111  1  6
 56112  1  0
 57113  1  0
 57114  1  0
 58115  1  0
 58116  1  0
 59117  1  0
 60118  1  1
 62119  1  0
 62120  1  0
 63121  1  0
 64122  1  0
 65123  1  0
 65124  1  0
 65125  1  0
 66126  1  0
 68127  1  0
 68128  1  0
 68129  1  0
M  END
> <Uni-Dock RESULT> 
ENERGY=   -6.821  LOWER_BOUND=    1.906  UPPER_BOUND=    5.995
INTER + INTRA:          -6.821
INTER:                  -6.821
INTRA:                   0.000
UNBOUND:                 0.000

$$$$

     RDKit          3D

129139  0  0  0  0  0  0  0  0999 V2000
   49.3321    4.8669   19.7832 C   0  0  0  0  0  0  0  0  0  0  0  0
   49.4532    4.4800   18.4235 C   0  0  0  0  0  0  0  0  0  0  0  0
   50.3641    4.7843   20.7501 C   0  0  0  0  0  0  0  0  0  0  0  0
   48.0798    5.3685   20.1966 C   0  0  0  0  0  0  0  0  0  0  0  0
   50.1655    5.1826   22.0785 C   0  0  0  0  0  0  0  0  0  0  0  0
   48.9139    5.6843   22.4717 C   0  0  0  0  0  0  0  0  0  0  0  0
   47.8851    5.7735   21.5290 C   0  0  0  0  0  0  0  0  0  0  0  0
   48.4278    4.5696   17.5314 N   0  0  0  0  0  0  0  0  0  0  0  0
   53.9870    5.9773   17.7775 C   0  0  0  0  0  0  0  0  0  0  0  0
   50.7477    3.9458   17.8390 C   0  0  0  0  0  0  0  0  0  0  0  0
   53.6905    6.9762   16.8368 C   0  0  0  0  0  0  0  0  0  0  0  0
   53.0461    4.9884   18.0899 C   0  0  0  0  0  0  0  0  0  0  0  0
   51.7711    5.0128   17.5102 C   0  0  0  0  0  0  0  0  0  0  0  0
   52.4225    6.9950   16.2507 C   0  0  0  0  0  0  0  0  0  0  0  0
   51.4726    6.0241   16.5858 C   0  0  0  0  0  0  0  0  0  0  0  0
   47.2525    5.0530   17.9724 C   0  0  0  0  0  0  0  0  0  0  0  0
   51.1247    5.1233   23.0598 O   0  0  0  0  0  0  0  0  0  0  0  0
   48.7982    6.0528   23.7890 O   0  0  0  0  0  0  0  0  0  0  0  0
   55.2489    5.9577   18.3227 O   0  0  0  0  0  0  0  0  0  0  0  0
   54.6850    7.8852   16.5793 O   0  0  0  0  0  0  0  0  0  0  0  0
   47.0335    5.4597   19.2733 C   0  0  0  0  0  0  0  0  0  0  0  0
   52.3848    4.5592   22.7250 C   0  0  0  0  0  0  0  0  0  0  0  0
   55.2346    5.8989   19.7476 C   0  0  0  0  0  0  0  0  0  0  0  0
   47.5495    6.5682   24.2248 C   0  0  0  0  0  0  0  0  0  0  0  0
   54.4660    8.8093   15.5230 C   0  0  0  0  0  0  0  0  0  0  0  0
   50.7035    5.2705   18.7242 C   0  0  2  0  0  0  0  0  0  0  0  0
   50.4902    5.4755   20.1937 C   0  0  0  0  0  0  0  0  0  0  0  0
   51.6633    6.3424   18.1986 C   0  0  2  0  0  0  0  0  0  0  0  0
   49.2016    5.1332   20.5459 C   0  0  0  0  0  0  0  0  0  0  0  0
   49.2175    5.3552   18.3217 C   0  0  1  0  0  0  0  0  0  0  0  0
   48.4267    4.8324   19.4494 O   0  0  0  0  0  0  0  0  0  0  0  0
   52.9598    6.2259   19.0793 C   0  0  1  0  0  0  0  0  0  0  0  0
   51.3939    6.0049   21.0983 C   0  0  0  0  0  0  0  0  0  0  0  0
   51.0423    7.7149   18.1471 C   0  0  0  0  0  0  0  0  0  0  0  0
   52.6818    6.5876   20.5759 C   0  0  0  0  0  0  0  0  0  0  0  0
   53.5339    4.8525   19.0695 N   0  0  0  0  0  0  0  0  0  0  0  0
   51.3095    3.8623   18.4968 C   0  0  0  0  0  0  0  0  0  0  0  0
   49.7189    7.8947   18.0293 C   0  0  0  0  0  0  0  0  0  0  0  0
   48.7166    6.7819   17.9301 C   0  0  2  0  0  0  0  0  0  0  0  0
   48.7972    5.1814   21.8602 C   0  0  0  0  0  0  0  0  0  0  0  0
   52.8219    3.8998   18.2181 C   0  0  0  0  0  0  0  0  0  0  0  0
   50.9952    6.0742   22.4359 C   0  0  0  0  0  0  0  0  0  0  0  0
   49.7090    5.6397   22.8183 C   0  0  0  0  0  0  0  0  0  0  0  0
   47.5284    4.8217   22.1964 O   0  0  0  0  0  0  0  0  0  0  0  0
   47.5664    7.1856   18.6766 O   0  0  0  0  0  0  0  0  0  0  0  0
   54.9646    4.8633   18.7763 C   0  0  0  0  0  0  0  0  0  0  0  0
   51.0611    5.3045   18.5772 C   0  0  2  0  0  0  0  0  0  0  0  0
   50.8211    5.6983   20.0058 C   0  0  0  0  0  0  0  0  0  0  0  0
   51.9333    6.3859   17.9237 C   0  0  2  0  0  0  0  0  0  0  0  0
   49.5419    5.3574   20.3967 C   0  0  0  0  0  0  0  0  0  0  0  0
   49.5765    5.2144   18.1584 C   0  0  1  0  0  0  0  0  0  0  0  0
   48.8008    4.8620   19.3527 O   0  0  0  0  0  0  0  0  0  0  0  0
   53.2432    6.4637   18.7854 C   0  0  2  0  0  0  0  0  0  0  0  0
   53.9411    5.1527   18.8904 N   0  0  0  0  0  0  0  0  0  0  0  0
   51.6930    6.3851   20.8318 C   0  0  0  0  0  0  0  0  0  0  0  0
   51.2004    7.6966   17.7607 C   0  0  0  0  0  0  0  0  0  0  0  0
   52.9593    6.9508   20.2443 C   0  0  0  0  0  0  0  0  0  0  0  0
   51.7806    3.9336   18.5463 C   0  0  0  0  0  0  0  0  0  0  0  0
   49.8729    7.7358   17.5660 C   0  0  0  0  0  0  0  0  0  0  0  0
   49.0311    6.4918   17.4446 C   0  0  2  0  0  0  0  0  0  0  0  0
   49.1070    5.5603   21.6956 C   0  0  0  0  0  0  0  0  0  0  0  0
   53.2737    4.0521   18.1958 C   0  0  0  0  0  0  0  0  0  0  0  0
   51.2754    6.6188   22.1419 C   0  0  0  0  0  0  0  0  0  0  0  0
   50.0022    6.1870   22.5755 C   0  0  0  0  0  0  0  0  0  0  0  0
   55.3443    5.2484   18.4994 C   0  0  0  0  0  0  0  0  0  0  0  0
   47.6876    6.7799   17.8182 O   0  0  0  0  0  0  0  0  0  0  0  0
   47.8401    5.1494   21.9928 O   0  0  0  0  0  0  0  0  0  0  0  0
   47.4018    5.3254   23.3313 C   0  0  0  0  0  0  0  0  0  0  0  0
   51.3305    4.4029   20.4467 H   0  0  0  0  0  0  0  0  0  0  0  0
   46.9109    6.1594   21.8137 H   0  0  0  0  0  0  0  0  0  0  0  0
   51.1685    3.1897   18.5129 H   0  0  0  0  0  0  0  0  0  0  0  0
   50.5258    3.4022   16.9109 H   0  0  0  0  0  0  0  0  0  0  0  0
   53.3157    4.1864   18.7708 H   0  0  0  0  0  0  0  0  0  0  0  0
   52.1351    7.7528   15.5293 H   0  0  0  0  0  0  0  0  0  0  0  0
   50.4922    6.0562   16.1120 H   0  0  0  0  0  0  0  0  0  0  0  0
   46.4628    5.1067   17.2288 H   0  0  0  0  0  0  0  0  0  0  0  0
   46.0571    5.8412   19.5555 H   0  0  0  0  0  0  0  0  0  0  0  0
   52.2793    3.5176   22.3997 H   0  0  0  0  0  0  0  0  0  0  0  0
   52.8973    5.1622   21.9665 H   0  0  0  0  0  0  0  0  0  0  0  0
   53.0048    4.5642   23.6273 H   0  0  0  0  0  0  0  0  0  0  0  0
   55.1251    4.8615   20.0859 H   0  0  0  0  0  0  0  0  0  0  0  0
   54.4479    6.5307   20.1808 H   0  0  0  0  0  0  0  0  0  0  0  0
   56.1998    6.2705   20.1067 H   0  0  0  0  0  0  0  0  0  0  0  0
   47.6358    6.7949   25.2925 H   0  0  0  0  0  0  0  0  0  0  0  0
   46.7515    5.8255   24.1080 H   0  0  0  0  0  0  0  0  0  0  0  0
   47.3042    7.5005   23.7039 H   0  0  0  0  0  0  0  0  0  0  0  0
   55.3787    9.4007   15.4043 H   0  0  0  0  0  0  0  0  0  0  0  0
   54.2774    8.2934   14.5761 H   0  0  0  0  0  0  0  0  0  0  0  0
   53.6526    9.4992   15.7683 H   0  0  0  0  0  0  0  0  0  0  0  0
   51.9345    6.1234   17.1562 H   0  0  0  0  0  0  0  0  0  0  0  0
   49.0125    4.6937   17.4701 H   0  0  0  0  0  0  0  0  0  0  0  0
   53.6963    6.9424   18.6920 H   0  0  0  0  0  0  0  0  0  0  0  0
   51.6997    8.5820   18.1668 H   0  0  0  0  0  0  0  0  0  0  0  0
   52.6149    7.6816   20.6572 H   0  0  0  0  0  0  0  0  0  0  0  0
   53.5207    6.2734   21.2102 H   0  0  0  0  0  0  0  0  0  0  0  0
   51.1197    3.2007   19.3523 H   0  0  0  0  0  0  0  0  0  0  0  0
   50.8368    3.3848   17.6285 H   0  0  0  0  0  0  0  0  0  0  0  0
   49.3206    8.9053   17.9691 H   0  0  0  0  0  0  0  0  0  0  0  0
   48.3983    6.7436   16.8779 H   0  0  0  0  0  0  0  0  0  0  0  0
   52.9906    4.1330   17.1584 H   0  0  0  0  0  0  0  0  0  0  0  0
   53.2187    2.8883   18.3754 H   0  0  0  0  0  0  0  0  0  0  0  0
   51.6691    6.4811   23.1868 H   0  0  0  0  0  0  0  0  0  0  0  0
   49.4261    5.7093   23.8647 H   0  0  0  0  0  0  0  0  0  0  0  0
   47.4485    4.8429   23.1626 H   0  0  0  0  0  0  0  0  0  0  0  0
   47.3129    6.4142   19.2257 H   0  0  0  0  0  0  0  0  0  0  0  0
   55.1700    5.2319   17.7644 H   0  0  0  0  0  0  0  0  0  0  0  0
   55.3890    3.8583   18.8724 H   0  0  0  0  0  0  0  0  0  0  0  0
   55.5000    5.4962   19.4925 H   0  0  0  0  0  0  0  0  0  0  0  0
   52.2060    6.0821   16.9041 H   0  0  0  0  0  0  0  0  0  0  0  0
   49.4240    4.3800   17.4619 H   0  0  0  0  0  0  0  0  0  0  0  0
   53.9095    7.2010   18.3162 H   0  0  0  0  0  0  0  0  0  0  0  0
   51.7718    8.6213   17.7802 H   0  0  0  0  0  0  0  0  0  0  0  0
   52.8563    8.0430   20.2240 H   0  0  0  0  0  0  0  0  0  0  0  0
   53.8094    6.7247   20.8994 H   0  0  0  0  0  0  0  0  0  0  0  0
   51.6770    3.4040   19.5027 H   0  0  0  0  0  0  0  0  0  0  0  0
   51.3266    3.2853   17.7863 H   0  0  0  0  0  0  0  0  0  0  0  0
   49.3895    8.6990   17.4301 H   0  0  0  0  0  0  0  0  0  0  0  0
   49.0000    6.2667   16.3703 H   0  0  0  0  0  0  0  0  0  0  0  0
   53.3776    4.1609   17.1085 H   0  0  0  0  0  0  0  0  0  0  0  0
   53.7569    3.1025   18.4564 H   0  0  0  0  0  0  0  0  0  0  0  0
   51.9225    7.1518   22.8347 H   0  0  0  0  0  0  0  0  0  0  0  0
   49.7298    6.3925   23.6046 H   0  0  0  0  0  0  0  0  0  0  0  0
   55.8607    6.0084   19.0950 H   0  0  0  0  0  0  0  0  0  0  0  0
   55.8636    4.3019   18.6825 H   0  0  0  0  0  0  0  0  0  0  0  0
   55.4555    5.5053   17.4395 H   0  0  0  0  0  0  0  0  0  0  0  0
   47.4134    7.5937   17.3665 H   0  0  0  0  0  0  0  0  0  0  0  0
   48.0294    4.7633   24.0309 H   0  0  0  0  0  0  0  0  0  0  0  0
   47.3653    6.3877   23.5964 H   0  0  0  0  0  0  0  0  0  0  0  0
   46.3843    4.9299   23.4053 H   0  0  0  0  0  0  0  0  0  0  0  0
  2  1  1  0
  3  1  2  0
  4  1  1  0
  5  3  1  0
  6  7  1  0
  7  4  2  0
  8  2  2  0
  9 12  2  0
 10  2  1  0
 11 14  2  0
 12 13  1  0
 13 10  1  0
 14 15  1  0
 15 13  2  0
 16 21  2  0
 17  5  1  0
 18  6  1  0
 19  9  1  0
 20 11  1  0
 21  4  1  0
 22 17  1  0
 23 19  1  0
 24 18  1  0
 25 20  1  0
 16  8  1  0
  6  5  2  0
 11  9  1  0
 27 26  1  0
 28 26  1  0
 29 27  2  0
 30 26  1  0
 30 31  1  0
 32 28  1  0
 33 27  1  0
 28 34  1  0
 32 35  1  0
 36 41  1  0
 26 37  1  1
 38 39  1  0
 39 30  1  0
 40 29  1  0
 41 37  1  0
 42 33  2  0
 43 42  1  0
 44 40  1  0
 39 45  1  0
 46 36  1  0
 29 31  1  0
 32 36  1  0
 38 34  2  0
 35 33  1  0
 43 40  2  0
 48 47  1  0
 49 47  1  0
 50 48  2  0
 51 47  1  0
 52 51  1  0
 53 49  1  0
 54 62  1  0
 55 48  1  0
 49 56  1  0
 53 57  1  0
 47 58  1  1
 59 60  1  0
 60 51  1  0
 61 50  1  0
 62 58  1  0
 63 55  2  0
 64 63  1  0
 65 54  1  0
 60 66  1  0
 67 61  1  0
 68 67  1  0
 52 50  1  0
 53 54  1  0
 59 56  2  0
 57 55  1  0
 64 61  2  0
  3 69  1  0
  7 70  1  0
 10 71  1  0
 10 72  1  0
 12 73  1  0
 14 74  1  0
 15 75  1  0
 16 76  1  0
 21 77  1  0
 22 78  1  0
 22 79  1  0
 22 80  1  0
 23 81  1  0
 23 82  1  0
 23 83  1  0
 24 84  1  0
 24 85  1  0
 24 86  1  0
 25 87  1  0
 25 88  1  0
 25 89  1  0
 28 90  1  1
 30 91  1  1
 32 92  1  6
 34 93  1  0
 35 94  1  0
 35 95  1  0
 37 96  1  0
 37 97  1  0
 38 98  1  0
 39 99  1  1
 41100  1  0
 41101  1  0
 42102  1  0
 43103  1  0
 44104  1  0
 45105  1  0
 46106  1  0
 46107  1  0
 46108  1  0
 49109  1  1
 51110  1  1
 53111  1  6
 56112  1  0
 57113  1  0
 57114  1  0
 58115  1  0
 58116  1  0
 59117  1  0
 60118  1  1
 62119  1  0
 62120  1  0
 63121  1  0
 64122  1  0
 65123  1  0
 65124  1  0
 65125  1  0
 66126  1  0
 68127  1  0
 68128  1  0
 68129  1  0
M  END
> <Uni-Dock RESULT> 
ENERGY=   -6.774  LOWER_BOUND=    4.053  UPPER_BOUND=    6.690
INTER + INTRA:          -6.774
INTER:                  -6.774
INTRA:                   0.000
UNBOUND:                 0.000

$$$$

     RDKit          3D

129139  0  0  0  0  0  0  0  0999 V2000
   48.0691   10.7256   17.7476 C   0  0  0  0  0  0  0  0  0  0  0  0
   47.9306    9.3140   17.7856 C   0  0  0  0  0  0  0  0  0  0  0  0
   47.7393   11.6067   18.8066 C   0  0  0  0  0  0  0  0  0  0  0  0
   48.5720   11.2872   16.5550 C   0  0  0  0  0  0  0  0  0  0  0  0
   47.9001   12.9935   18.6911 C   0  0  0  0  0  0  0  0  0  0  0  0
   48.4069   13.5353   17.4985 C   0  0  0  0  0  0  0  0  0  0  0  0
   48.7384   12.6791   16.4440 C   0  0  0  0  0  0  0  0  0  0  0  0
   48.2531    8.5073   16.7365 N   0  0  0  0  0  0  0  0  0  0  0  0
   49.2028    8.7123   22.3936 C   0  0  0  0  0  0  0  0  0  0  0  0
   47.4241    8.5762   19.0111 C   0  0  0  0  0  0  0  0  0  0  0  0
   50.3753    7.9835   22.1395 C   0  0  0  0  0  0  0  0  0  0  0  0
   48.2411    8.8904   21.3915 C   0  0  0  0  0  0  0  0  0  0  0  0
   48.4597    8.3918   20.1008 C   0  0  0  0  0  0  0  0  0  0  0  0
   50.5892    7.4773   20.8550 C   0  0  0  0  0  0  0  0  0  0  0  0
   49.6415    7.6813   19.8463 C   0  0  0  0  0  0  0  0  0  0  0  0
   48.7278    9.0888   15.6202 C   0  0  0  0  0  0  0  0  0  0  0  0
   47.5956   13.8968   19.6801 O   0  0  0  0  0  0  0  0  0  0  0  0
   48.5347   14.9017   17.4627 O   0  0  0  0  0  0  0  0  0  0  0  0
   48.9962    9.1785   23.6703 O   0  0  0  0  0  0  0  0  0  0  0  0
   51.2450    7.8422   23.1908 O   0  0  0  0  0  0  0  0  0  0  0  0
   48.9033   10.4512   15.4840 C   0  0  0  0  0  0  0  0  0  0  0  0
   47.0164   13.4007   20.8787 C   0  0  0  0  0  0  0  0  0  0  0  0
   48.6783   10.5683   23.7066 C   0  0  0  0  0  0  0  0  0  0  0  0
   49.0469   15.4876   16.2757 C   0  0  0  0  0  0  0  0  0  0  0  0
   52.3600    6.9823   23.0036 C   0  0  0  0  0  0  0  0  0  0  0  0
   48.5639    9.6863   19.1042 C   0  0  2  0  0  0  0  0  0  0  0  0
   48.5104   11.1779   18.9645 C   0  0  0  0  0  0  0  0  0  0  0  0
   49.6448    9.3129   20.1234 C   0  0  2  0  0  0  0  0  0  0  0  0
   48.1995   11.5295   17.6678 C   0  0  0  0  0  0  0  0  0  0  0  0
   48.8237    9.3837   17.6148 C   0  0  1  0  0  0  0  0  0  0  0  0
   48.1593   10.4387   16.8300 O   0  0  0  0  0  0  0  0  0  0  0  0
   49.2792   10.0894   21.4399 C   0  0  1  0  0  0  0  0  0  0  0  0
   48.8010   12.1146   19.9409 C   0  0  0  0  0  0  0  0  0  0  0  0
   51.0432    9.5416   19.6093 C   0  0  0  0  0  0  0  0  0  0  0  0
   49.3789   11.6391   21.2490 C   0  0  0  0  0  0  0  0  0  0  0  0
   47.8944    9.8027   21.9048 N   0  0  0  0  0  0  0  0  0  0  0  0
   47.1827    9.1781   19.5898 C   0  0  0  0  0  0  0  0  0  0  0  0
   51.3329    9.5273   18.3003 C   0  0  0  0  0  0  0  0  0  0  0  0
   50.3293    9.2819   17.2115 C   0  0  2  0  0  0  0  0  0  0  0  0
   48.0339   12.8502   17.3194 C   0  0  0  0  0  0  0  0  0  0  0  0
   47.1657    8.8321   21.0886 C   0  0  0  0  0  0  0  0  0  0  0  0
   48.6514   13.4617   19.6008 C   0  0  0  0  0  0  0  0  0  0  0  0
   48.2444   13.8263   18.3005 C   0  0  0  0  0  0  0  0  0  0  0  0
   47.7075   13.1820   16.0405 O   0  0  0  0  0  0  0  0  0  0  0  0
   50.6681   10.1479   16.1259 O   0  0  0  0  0  0  0  0  0  0  0  0
   47.8596    9.4420   23.3197 C   0  0  0  0  0  0  0  0  0  0  0  0
   48.5994    9.5294   19.4574 C   0  0  2  0  0  0  0  0  0  0  0  0
   48.7403   11.0161   19.3041 C   0  0  0  0  0  0  0  0  0  0  0  0
   49.7191    9.0366   20.3850 C   0  0  2  0  0  0  0  0  0  0  0  0
   48.4230   11.4055   18.0185 C   0  0  0  0  0  0  0  0  0  0  0  0
   48.6908    9.1793   17.9552 C   0  0  1  0  0  0  0  0  0  0  0  0
   48.1801   10.3295   17.2013 O   0  0  0  0  0  0  0  0  0  0  0  0
   49.5466    9.8287   21.7294 C   0  0  2  0  0  0  0  0  0  0  0  0
   48.1934    9.6595   22.3268 N   0  0  0  0  0  0  0  0  0  0  0  0
   49.2020   11.9056   20.2581 C   0  0  0  0  0  0  0  0  0  0  0  0
   51.0851    9.1506   19.7504 C   0  0  0  0  0  0  0  0  0  0  0  0
   49.7766   11.3642   21.5409 C   0  0  0  0  0  0  0  0  0  0  0  0
   47.2108    9.2149   20.0665 C   0  0  0  0  0  0  0  0  0  0  0  0
   51.2513    9.0356   18.4235 C   0  0  0  0  0  0  0  0  0  0  0  0
   50.1120    8.7364   17.4835 C   0  0  2  0  0  0  0  0  0  0  0  0
   48.4141   12.7406   17.6512 C   0  0  0  0  0  0  0  0  0  0  0  0
   47.2878    8.8141   21.5496 C   0  0  0  0  0  0  0  0  0  0  0  0
   49.2199   13.2563   19.9109 C   0  0  0  0  0  0  0  0  0  0  0  0
   48.8053   13.6710   18.6257 C   0  0  0  0  0  0  0  0  0  0  0  0
   48.2616    9.2195   23.7171 C   0  0  0  0  0  0  0  0  0  0  0  0
   50.4192    9.2253   16.1818 O   0  0  0  0  0  0  0  0  0  0  0  0
   48.0445   13.0247   16.3686 O   0  0  0  0  0  0  0  0  0  0  0  0
   48.0022   14.3940   15.9974 C   0  0  0  0  0  0  0  0  0  0  0  0
   47.3540   11.1896   19.7281 H   0  0  0  0  0  0  0  0  0  0  0  0
   49.1322   13.0789   15.5144 H   0  0  0  0  0  0  0  0  0  0  0  0
   46.5300    9.0801   19.3977 H   0  0  0  0  0  0  0  0  0  0  0  0
   47.0766    7.5783   18.7119 H   0  0  0  0  0  0  0  0  0  0  0  0
   47.3112    9.4009   21.6241 H   0  0  0  0  0  0  0  0  0  0  0  0
   51.4844    6.9200   20.5997 H   0  0  0  0  0  0  0  0  0  0  0  0
   49.8278    7.2728   18.8537 H   0  0  0  0  0  0  0  0  0  0  0  0
   48.9714    8.4092   14.8090 H   0  0  0  0  0  0  0  0  0  0  0  0
   49.2933   10.8481   14.5518 H   0  0  0  0  0  0  0  0  0  0  0  0
   46.0620   12.8992   20.6801 H   0  0  0  0  0  0  0  0  0  0  0  0
   47.7113   12.7373   21.4067 H   0  0  0  0  0  0  0  0  0  0  0  0
   46.8130   14.2555   21.5316 H   0  0  0  0  0  0  0  0  0  0  0  0
   47.6066   10.7198   23.5300 H   0  0  0  0  0  0  0  0  0  0  0  0
   49.2730   11.1486   22.9887 H   0  0  0  0  0  0  0  0  0  0  0  0
   48.9100   10.9376   24.7110 H   0  0  0  0  0  0  0  0  0  0  0  0
   49.0675   16.5728   16.4206 H   0  0  0  0  0  0  0  0  0  0  0  0
   48.3953   15.2809   15.4184 H   0  0  0  0  0  0  0  0  0  0  0  0
   50.0736   15.1565   16.0835 H   0  0  0  0  0  0  0  0  0  0  0  0
   52.8983    6.9246   23.9542 H   0  0  0  0  0  0  0  0  0  0  0  0
   52.0407    5.9693   22.7390 H   0  0  0  0  0  0  0  0  0  0  0  0
   53.0479    7.3899   22.2564 H   0  0  0  0  0  0  0  0  0  0  0  0
   49.6023    8.2354   20.3362 H   0  0  0  0  0  0  0  0  0  0  0  0
   48.3454    8.4389   17.3263 H   0  0  0  0  0  0  0  0  0  0  0  0
   50.0017    9.7995   22.2144 H   0  0  0  0  0  0  0  0  0  0  0  0
   51.8443    9.6828   20.3323 H   0  0  0  0  0  0  0  0  0  0  0  0
   50.4413   11.9193   21.2704 H   0  0  0  0  0  0  0  0  0  0  0  0
   48.8963   12.1619   22.0848 H   0  0  0  0  0  0  0  0  0  0  0  0
   46.3903    9.9092   19.3824 H   0  0  0  0  0  0  0  0  0  0  0  0
   46.9064    8.2639   19.0481 H   0  0  0  0  0  0  0  0  0  0  0  0
   52.3626    9.6708   17.9797 H   0  0  0  0  0  0  0  0  0  0  0  0
   50.5067    8.2581   16.8508 H   0  0  0  0  0  0  0  0  0  0  0  0
   47.5769    7.8244   21.2338 H   0  0  0  0  0  0  0  0  0  0  0  0
   46.1174    8.7839   21.4114 H   0  0  0  0  0  0  0  0  0  0  0  0
   48.8661   14.2374   20.3328 H   0  0  0  0  0  0  0  0  0  0  0  0
   48.1405   14.8815   18.0645 H   0  0  0  0  0  0  0  0  0  0  0  0
   47.5568   14.1391   15.9999 H   0  0  0  0  0  0  0  0  0  0  0  0
   49.8286   10.5617   15.8346 H   0  0  0  0  0  0  0  0  0  0  0  0
   48.3922    8.5037   23.5137 H   0  0  0  0  0  0  0  0  0  0  0  0
   46.8270    9.3334   23.6680 H   0  0  0  0  0  0  0  0  0  0  0  0
   48.3118   10.2315   23.9298 H   0  0  0  0  0  0  0  0  0  0  0  0
   49.5892    7.9661   20.5936 H   0  0  0  0  0  0  0  0  0  0  0  0
   48.0108    8.3529   17.7116 H   0  0  0  0  0  0  0  0  0  0  0  0
   50.3094    9.4658   22.4322 H   0  0  0  0  0  0  0  0  0  0  0  0
   51.9487    9.3063   20.3922 H   0  0  0  0  0  0  0  0  0  0  0  0
   50.8584   11.5461   21.5223 H   0  0  0  0  0  0  0  0  0  0  0  0
   49.3758   11.9227   22.3955 H   0  0  0  0  0  0  0  0  0  0  0  0
   46.5234   10.0645   19.9591 H   0  0  0  0  0  0  0  0  0  0  0  0
   46.7460    8.3754   19.5344 H   0  0  0  0  0  0  0  0  0  0  0  0
   52.2542    9.1007   18.0114 H   0  0  0  0  0  0  0  0  0  0  0  0
   50.0904    7.6423   17.3935 H   0  0  0  0  0  0  0  0  0  0  0  0
   47.5866    7.7601   21.6196 H   0  0  0  0  0  0  0  0  0  0  0  0
   46.2753    8.8739   21.9673 H   0  0  0  0  0  0  0  0  0  0  0  0
   49.5707   13.9990   20.6237 H   0  0  0  0  0  0  0  0  0  0  0  0
   48.8371   14.7330   18.4100 H   0  0  0  0  0  0  0  0  0  0  0  0
   48.8619    9.9144   24.3136 H   0  0  0  0  0  0  0  0  0  0  0  0
   47.2639    9.2020   24.1680 H   0  0  0  0  0  0  0  0  0  0  0  0
   48.7001    8.2188   23.8068 H   0  0  0  0  0  0  0  0  0  0  0  0
   51.3191    8.9424   15.9545 H   0  0  0  0  0  0  0  0  0  0  0  0
   47.2793   14.9474   16.6060 H   0  0  0  0  0  0  0  0  0  0  0  0
   48.9978   14.8475   16.0538 H   0  0  0  0  0  0  0  0  0  0  0  0
   47.6713   14.4486   14.9559 H   0  0  0  0  0  0  0  0  0  0  0  0
  2  1  1  0
  3  1  2  0
  4  1  1  0
  5  3  1  0
  6  7  1  0
  7  4  2  0
  8  2  2  0
  9 12  2  0
 10  2  1  0
 11 14  2  0
 12 13  1  0
 13 10  1  0
 14 15  1  0
 15 13  2  0
 16 21  2  0
 17  5  1  0
 18  6  1  0
 19  9  1  0
 20 11  1  0
 21  4  1  0
 22 17  1  0
 23 19  1  0
 24 18  1  0
 25 20  1  0
 16  8  1  0
  6  5  2  0
 11  9  1  0
 27 26  1  0
 28 26  1  0
 29 27  2  0
 30 26  1  0
 30 31  1  0
 32 28  1  0
 33 27  1  0
 28 34  1  0
 32 35  1  0
 36 41  1  0
 26 37  1  1
 38 39  1  0
 39 30  1  0
 40 29  1  0
 41 37  1  0
 42 33  2  0
 43 42  1  0
 44 40  1  0
 39 45  1  0
 46 36  1  0
 29 31  1  0
 32 36  1  0
 38 34  2  0
 35 33  1  0
 43 40  2  0
 48 47  1  0
 49 47  1  0
 50 48  2  0
 51 47  1  0
 52 51  1  0
 53 49  1  0
 54 62  1  0
 55 48  1  0
 49 56  1  0
 53 57  1  0
 47 58  1  1
 59 60  1  0
 60 51  1  0
 61 50  1  0
 62 58  1  0
 63 55  2  0
 64 63  1  0
 65 54  1  0
 60 66  1  0
 67 61  1  0
 68 67  1  0
 52 50  1  0
 53 54  1  0
 59 56  2  0
 57 55  1  0
 64 61  2  0
  3 69  1  0
  7 70  1  0
 10 71  1  0
 10 72  1  0
 12 73  1  0
 14 74  1  0
 15 75  1  0
 16 76  1  0
 21 77  1  0
 22 78  1  0
 22 79  1  0
 22 80  1  0
 23 81  1  0
 23 82  1  0
 23 83  1  0
 24 84  1  0
 24 85  1  0
 24 86  1  0
 25 87  1  0
 25 88  1  0
 25 89  1  0
 28 90  1  1
 30 91  1  1
 32 92  1  6
 34 93  1  0
 35 94  1  0
 35 95  1  0
 37 96  1  0
 37 97  1  0
 38 98  1  0
 39 99  1  1
 41100  1  0
 41101  1  0
 42102  1  0
 43103  1  0
 44104  1  0
 45105  1  0
 46106  1  0
 46107  1  0
 46108  1  0
 49109  1  1
 51110  1  1
 53111  1  6
 56112  1  0
 57113  1  0
 57114  1  0
 58115  1  0
 58116  1  0
 59117  1  0
 60118  1  1
 62119  1  0
 62120  1  0
 63121  1  0
 64122  1  0
 65123  1  0
 65124  1  0
 65125  1  0
 66126  1  0
 68127  1  0
 68128  1  0
 68129  1  0
M  END
> <Uni-Dock RESULT> 
ENERGY=   -6.769  LOWER_BOUND=    1.984  UPPER_BOUND=    5.581
INTER + INTRA:          -6.769
INTER:                  -6.769
INTRA:                   0.000
UNBOUND:                 0.000

$$$$
