
     RDKit          3D

 81 82  0  0  0  0  0  0  0  0999 V2000
    0.0033    0.3978    0.0000 O   0  0  0  0  0  0  0  0  0  0  0  0
   -2.5265    1.1724    0.1948 N   0  0  0  0  0  0  0  0  0  0  0  0
   -1.4701    0.7105   -0.7251 C   0  0  1  0  0  0  0  0  0  0  0  0
   -1.6396    1.6660    1.1110 C   0  0  0  0  0  0  0  0  0  0  0  0
   -0.4430    1.4684    0.1527 C   0  0  1  0  0  0  0  0  0  0  0  0
   -3.5368    0.2045    0.6264 C   0  0  2  0  0  0  0  0  0  0  0  0
   -1.5460   -1.1228   -0.5761 S   0  0  0  0  0  0  0  0  0  0  0  0
   -3.3724   -1.0603   -0.2456 C   0  0  0  0  0  0  0  0  0  0  0  0
    0.7080    0.6771    0.6715 N   0  0  0  0  0  0  0  0  0  0  0  0
   -4.9570    0.7615    0.5942 C   0  0  0  0  0  0  0  0  0  0  0  0
    1.7384    0.3254   -0.1774 C   0  0  0  0  0  0  0  0  0  0  0  0
   -1.7931    2.0025    2.2635 O   0  0  0  0  0  0  0  0  0  0  0  0
   -5.9599    0.1592    0.9518 O   0  0  0  0  0  0  0  0  0  0  0  0
    1.7958    0.7508   -1.3298 O   0  0  0  0  0  0  0  0  0  0  0  0
    2.7442   -0.6420    0.4236 C   0  0  0  0  0  0  0  0  0  0  0  0
   -5.0652    2.0041    0.0841 O   0  0  0  0  0  0  0  0  0  0  0  0
   -3.7653   -2.3344    0.5068 C   0  0  0  0  0  0  0  0  0  0  0  0
   -4.0935   -0.9969   -1.5999 C   0  0  0  0  0  0  0  0  0  0  0  0
    4.1779   -0.2713    0.1362 C   0  0  0  0  0  0  0  0  0  0  0  0
    4.8495   -0.8243   -0.9636 C   0  0  0  0  0  0  0  0  0  0  0  0
    4.8505    0.6526    0.9484 C   0  0  0  0  0  0  0  0  0  0  0  0
    6.1730    1.0051    0.6743 C   0  0  0  0  0  0  0  0  0  0  0  0
    6.1726   -0.4699   -1.2340 C   0  0  0  0  0  0  0  0  0  0  0  0
    6.8348    0.4416   -0.4139 C   0  0  0  0  0  0  0  0  0  0  0  0
    1.1651   -0.8262    1.1669 C   0  0  0  0  0  0  0  0  0  0  0  0
    2.4188   -0.2105    0.6481 C   0  0  0  0  0  0  0  0  0  0  0  0
    0.8017   -0.7256    2.3292 O   0  0  0  0  0  0  0  0  0  0  0  0
    2.8407   -0.3632   -0.6786 C   0  0  0  0  0  0  0  0  0  0  0  0
    3.1740    0.5862    1.5163 C   0  0  0  0  0  0  0  0  0  0  0  0
    0.4991   -1.4468    0.1620 O   0  0  0  0  0  0  0  0  0  0  0  0
    4.7838    1.0338   -0.2457 C   0  0  0  0  0  0  0  0  0  0  0  0
   -2.5907   -0.3689   -0.2309 N   0  0  0  0  0  0  0  0  0  0  0  0
    5.8611    1.7817   -0.7283 N   0  0  0  0  0  0  0  0  0  0  0  0
    4.0021    0.2771   -1.1227 C   0  0  0  0  0  0  0  0  0  0  0  0
    4.3341    1.2198    1.0631 C   0  0  0  0  0  0  0  0  0  0  0  0
   -0.7859   -2.0035    0.4920 C   0  0  0  0  0  0  0  0  0  0  0  0
   -1.8320   -1.5997   -0.5676 C   0  0  0  0  0  0  0  0  0  0  0  0
   -1.7640    0.8359   -0.4331 C   0  0  0  0  0  0  0  0  0  0  0  0
   -3.8371   -0.2900   -1.0183 C   0  0  0  0  0  0  0  0  0  0  0  0
   -2.3084    2.0519    0.3138 C   0  0  0  0  0  0  0  0  0  0  0  0
   -4.9256   -1.2027   -0.4609 C   0  0  0  0  0  0  0  0  0  0  0  0
   -0.7649   -0.1924    0.0000 H   0  0  0  0  0  0  0  0  0  0  0  0
    0.7616   -0.2054    0.0000 H   0  0  0  0  0  0  0  0  0  0  0  0
   -1.5962    1.0964   -1.7412 H   0  0  0  0  0  0  0  0  0  0  0  0
   -0.1055    2.4228   -0.2701 H   0  0  0  0  0  0  0  0  0  0  0  0
   -3.3368   -0.0292    1.6819 H   0  0  0  0  0  0  0  0  0  0  0  0
    0.6216    0.2017    1.5646 H   0  0  0  0  0  0  0  0  0  0  0  0
    2.5218   -1.6401    0.0269 H   0  0  0  0  0  0  0  0  0  0  0  0
    2.6071   -0.7111    1.5097 H   0  0  0  0  0  0  0  0  0  0  0  0
   -6.0210    2.2127    0.1366 H   0  0  0  0  0  0  0  0  0  0  0  0
   -4.8344   -2.3345    0.7465 H   0  0  0  0  0  0  0  0  0  0  0  0
   -3.2183   -2.4323    1.4524 H   0  0  0  0  0  0  0  0  0  0  0  0
   -3.5685   -3.2337   -0.0899 H   0  0  0  0  0  0  0  0  0  0  0  0
   -5.1802   -1.0333   -1.4692 H   0  0  0  0  0  0  0  0  0  0  0  0
   -3.8283   -1.8477   -2.2392 H   0  0  0  0  0  0  0  0  0  0  0  0
   -3.8621   -0.0786   -2.1512 H   0  0  0  0  0  0  0  0  0  0  0  0
    4.3407   -1.5260   -1.6214 H   0  0  0  0  0  0  0  0  0  0  0  0
    4.3506    1.1090    1.7995 H   0  0  0  0  0  0  0  0  0  0  0  0
    6.6852    1.7248    1.3067 H   0  0  0  0  0  0  0  0  0  0  0  0
    6.6842   -0.8998   -2.0910 H   0  0  0  0  0  0  0  0  0  0  0  0
    7.8638    0.7190   -0.6255 H   0  0  0  0  0  0  0  0  0  0  0  0
    2.2638   -0.9548   -1.3855 H   0  0  0  0  0  0  0  0  0  0  0  0
    2.8439    0.7460    2.5425 H   0  0  0  0  0  0  0  0  0  0  0  0
    6.5402    2.0285   -0.0139 H   0  0  0  0  0  0  0  0  0  0  0  0
    6.3014    1.3898   -1.5553 H   0  0  0  0  0  0  0  0  0  0  0  0
    4.2916    0.1837   -2.1655 H   0  0  0  0  0  0  0  0  0  0  0  0
    4.8784    1.8705    1.7427 H   0  0  0  0  0  0  0  0  0  0  0  0
   -1.1298   -1.7429    1.5003 H   0  0  0  0  0  0  0  0  0  0  0  0
   -0.6616   -3.0930    0.4623 H   0  0  0  0  0  0  0  0  0  0  0  0
   -1.3629   -1.5024   -1.5564 H   0  0  0  0  0  0  0  0  0  0  0  0
   -2.5303   -2.4416   -0.6258 H   0  0  0  0  0  0  0  0  0  0  0  0
   -0.7593    0.6796   -0.0411 H   0  0  0  0  0  0  0  0  0  0  0  0
   -1.6535    1.0627   -1.5014 H   0  0  0  0  0  0  0  0  0  0  0  0
   -3.6548   -0.5200   -2.0755 H   0  0  0  0  0  0  0  0  0  0  0  0
   -4.2518    0.7229   -0.9889 H   0  0  0  0  0  0  0  0  0  0  0  0
   -3.2403    2.4202   -0.1167 H   0  0  0  0  0  0  0  0  0  0  0  0
   -2.4799    1.8237    1.3711 H   0  0  0  0  0  0  0  0  0  0  0  0
   -1.5841    2.8704    0.2669 H   0  0  0  0  0  0  0  0  0  0  0  0
   -5.8665   -1.0399   -0.9986 H   0  0  0  0  0  0  0  0  0  0  0  0
   -4.6749   -2.2620   -0.5612 H   0  0  0  0  0  0  0  0  0  0  0  0
   -5.1065   -0.9905    0.5993 H   0  0  0  0  0  0  0  0  0  0  0  0
  3  2  1  0
  4  2  1  0
  5  4  1  0
  6  2  1  0
  3  7  1  0
  8  6  1  0
  5  9  1  0
  6 10  1  0
 11  9  1  0
 12  4  2  0
 13 10  2  0
 14 11  2  0
 15 11  1  0
 16 10  1  0
 17  8  1  0
 18  8  1  0
 19 15  1  0
 20 19  2  0
 21 19  1  0
 22 21  2  0
 23 20  1  0
 24 22  1  0
  7  8  1  0
  5  3  1  0
 24 23  2  0
 26 25  1  0
 27 25  2  0
 28 26  2  0
 29 26  1  0
 30 25  1  0
 31 35  1  0
 32 37  1  0
 33 31  1  0
 34 28  1  0
 35 29  2  0
 36 30  1  0
 37 36  1  0
 38 32  1  0
 39 32  1  0
 40 38  1  0
 41 39  1  0
 31 34  2  0
  1 42  1  0
  1 43  1  0
  3 44  1  6
  5 45  1  6
  6 46  1  1
  9 47  1  0
 15 48  1  0
 15 49  1  0
 16 50  1  0
 17 51  1  0
 17 52  1  0
 17 53  1  0
 18 54  1  0
 18 55  1  0
 18 56  1  0
 20 57  1  0
 21 58  1  0
 22 59  1  0
 23 60  1  0
 24 61  1  0
 28 62  1  0
 29 63  1  0
 33 64  1  0
 33 65  1  0
 34 66  1  0
 35 67  1  0
 36 68  1  0
 36 69  1  0
 37 70  1  0
 37 71  1  0
 38 72  1  0
 38 73  1  0
 39 74  1  0
 39 75  1  0
 40 76  1  0
 40 77  1  0
 40 78  1  0
 41 79  1  0
 41 80  1  0
 41 81  1  0
M  END
$$$$
