
     RDKit          3D

 81 82  0  0  0  0  0  0  0  0999 V2000
    0.0841    0.3884    0.0000 O   0  0  0  0  0  0  0  0  0  0  0  0
   -2.1131   -0.9636   -1.3017 N   0  0  0  0  0  0  0  0  0  0  0  0
   -1.2347   -1.2791   -0.1562 C   0  0  1  0  0  0  0  0  0  0  0  0
   -1.1137   -0.3617   -2.0163 C   0  0  0  0  0  0  0  0  0  0  0  0
   -0.0306   -0.8525   -1.0312 C   0  0  1  0  0  0  0  0  0  0  0  0
   -3.3427   -0.2188   -1.0309 C   0  0  2  0  0  0  0  0  0  0  0  0
   -1.8196   -0.1291    1.1564 S   0  0  0  0  0  0  0  0  0  0  0  0
   -3.5535   -0.1919    0.4953 C   0  0  0  0  0  0  0  0  0  0  0  0
    0.8808    0.1891   -0.4904 N   0  0  0  0  0  0  0  0  0  0  0  0
   -4.5084   -0.8250   -1.8002 C   0  0  0  0  0  0  0  0  0  0  0  0
    1.7326   -0.0964    0.5548 C   0  0  0  0  0  0  0  0  0  0  0  0
   -1.1556    0.3846   -2.9674 O   0  0  0  0  0  0  0  0  0  0  0  0
   -4.6164   -1.9718   -2.2054 O   0  0  0  0  0  0  0  0  0  0  0  0
    1.7902   -1.2155    1.0598 O   0  0  0  0  0  0  0  0  0  0  0  0
    2.5758    1.0747    1.0250 C   0  0  0  0  0  0  0  0  0  0  0  0
   -5.5197    0.0523   -1.9841 O   0  0  0  0  0  0  0  0  0  0  0  0
   -4.2367   -1.4426    1.0643 C   0  0  0  0  0  0  0  0  0  0  0  0
   -4.2942    1.0686    0.9512 C   0  0  0  0  0  0  0  0  0  0  0  0
    4.0417    0.8879    0.7285 C   0  0  0  0  0  0  0  0  0  0  0  0
    4.5893    1.3347   -0.4825 C   0  0  0  0  0  0  0  0  0  0  0  0
    4.8714    0.2369    1.6527 C   0  0  0  0  0  0  0  0  0  0  0  0
    6.2269    0.0507    1.3791 C   0  0  0  0  0  0  0  0  0  0  0  0
    5.9458    1.1465   -0.7542 C   0  0  0  0  0  0  0  0  0  0  0  0
    6.7643    0.5069    0.1769 C   0  0  0  0  0  0  0  0  0  0  0  0
    1.4646    0.4784   -1.0660 C   0  0  0  0  0  0  0  0  0  0  0  0
    2.8659    0.3702   -0.5762 C   0  0  0  0  0  0  0  0  0  0  0  0
    1.0223    1.4768   -1.6127 O   0  0  0  0  0  0  0  0  0  0  0  0
    3.7463    1.4206   -0.8581 C   0  0  0  0  0  0  0  0  0  0  0  0
    3.3341   -0.7416    0.1337 C   0  0  0  0  0  0  0  0  0  0  0  0
    0.7783   -0.6645   -0.8139 O   0  0  0  0  0  0  0  0  0  0  0  0
    5.5281    0.2887    0.3446 C   0  0  0  0  0  0  0  0  0  0  0  0
   -2.9428   -0.0547   -0.5887 N   0  0  0  0  0  0  0  0  0  0  0  0
    6.8819    0.1839    0.6782 N   0  0  0  0  0  0  0  0  0  0  0  0
    5.0737    1.3630   -0.4204 C   0  0  0  0  0  0  0  0  0  0  0  0
    4.6626   -0.7846    0.5720 C   0  0  0  0  0  0  0  0  0  0  0  0
   -0.5912   -0.6875   -1.2651 C   0  0  0  0  0  0  0  0  0  0  0  0
   -1.5073    0.0154   -0.2493 C   0  0  0  0  0  0  0  0  0  0  0  0
   -3.6893    1.0530    0.0335 C   0  0  0  0  0  0  0  0  0  0  0  0
   -3.5040   -1.3863   -0.3110 C   0  0  0  0  0  0  0  0  0  0  0  0
   -3.7700    1.0423    1.5573 C   0  0  0  0  0  0  0  0  0  0  0  0
   -4.9508   -1.5520   -0.7679 C   0  0  0  0  0  0  0  0  0  0  0  0
    0.7045   -0.3561    0.0000 H   0  0  0  0  0  0  0  0  0  0  0  0
   -0.7886   -0.0324    0.0000 H   0  0  0  0  0  0  0  0  0  0  0  0
   -1.2621   -2.3397    0.1131 H   0  0  0  0  0  0  0  0  0  0  0  0
    0.5412   -1.6929   -1.4465 H   0  0  0  0  0  0  0  0  0  0  0  0
   -3.2002    0.8009   -1.4191 H   0  0  0  0  0  0  0  0  0  0  0  0
    0.8686    1.1219   -0.8871 H   0  0  0  0  0  0  0  0  0  0  0  0
    2.2249    2.0100    0.5732 H   0  0  0  0  0  0  0  0  0  0  0  0
    2.4150    1.1935    2.1036 H   0  0  0  0  0  0  0  0  0  0  0  0
   -6.1810   -0.4563   -2.5023 H   0  0  0  0  0  0  0  0  0  0  0  0
   -3.7470   -2.3687    0.7453 H   0  0  0  0  0  0  0  0  0  0  0  0
   -5.2814   -1.5001    0.7390 H   0  0  0  0  0  0  0  0  0  0  0  0
   -4.2483   -1.4295    2.1604 H   0  0  0  0  0  0  0  0  0  0  0  0
   -3.8123    1.9809    0.5806 H   0  0  0  0  0  0  0  0  0  0  0  0
   -5.3245    1.0686    0.5801 H   0  0  0  0  0  0  0  0  0  0  0  0
   -4.3465    1.1355    2.0443 H   0  0  0  0  0  0  0  0  0  0  0  0
    3.9663    1.8301   -1.2249 H   0  0  0  0  0  0  0  0  0  0  0  0
    4.4611   -0.1377    2.5887 H   0  0  0  0  0  0  0  0  0  0  0  0
    6.8615   -0.4560    2.1024 H   0  0  0  0  0  0  0  0  0  0  0  0
    6.3654    1.4955   -1.6945 H   0  0  0  0  0  0  0  0  0  0  0  0
    7.8196    0.3592   -0.0381 H   0  0  0  0  0  0  0  0  0  0  0  0
    3.4094    2.2807   -1.4343 H   0  0  0  0  0  0  0  0  0  0  0  0
    2.6844   -1.5878    0.3424 H   0  0  0  0  0  0  0  0  0  0  0  0
    7.0768   -0.4407    1.4530 H   0  0  0  0  0  0  0  0  0  0  0  0
    7.3566    1.0766    0.7703 H   0  0  0  0  0  0  0  0  0  0  0  0
    5.7483    2.1720   -0.6845 H   0  0  0  0  0  0  0  0  0  0  0  0
    5.0165   -1.6718    1.0935 H   0  0  0  0  0  0  0  0  0  0  0  0
   -0.8515   -1.7450   -1.3656 H   0  0  0  0  0  0  0  0  0  0  0  0
   -0.6778   -0.2390   -2.2624 H   0  0  0  0  0  0  0  0  0  0  0  0
   -1.1911    1.0672   -0.2108 H   0  0  0  0  0  0  0  0  0  0  0  0
   -1.3145   -0.3789    0.7584 H   0  0  0  0  0  0  0  0  0  0  0  0
   -4.7047    1.0889   -0.3764 H   0  0  0  0  0  0  0  0  0  0  0  0
   -3.2391    2.0024   -0.2843 H   0  0  0  0  0  0  0  0  0  0  0  0
   -2.9246   -2.1440   -0.8495 H   0  0  0  0  0  0  0  0  0  0  0  0
   -3.4283   -1.6384    0.7540 H   0  0  0  0  0  0  0  0  0  0  0  0
   -4.3177    0.1711    1.9279 H   0  0  0  0  0  0  0  0  0  0  0  0
   -4.3022    1.9342    1.9036 H   0  0  0  0  0  0  0  0  0  0  0  0
   -2.7778    1.0524    2.0169 H   0  0  0  0  0  0  0  0  0  0  0  0
   -5.2530   -2.5993   -0.6735 H   0  0  0  0  0  0  0  0  0  0  0  0
   -5.6423   -0.9588   -0.1614 H   0  0  0  0  0  0  0  0  0  0  0  0
   -5.0698   -1.2629   -1.8175 H   0  0  0  0  0  0  0  0  0  0  0  0
  3  2  1  0
  4  2  1  0
  5  4  1  0
  6  2  1  0
  3  7  1  0
  8  6  1  0
  5  9  1  0
  6 10  1  0
 11  9  1  0
 12  4  2  0
 13 10  2  0
 14 11  2  0
 15 11  1  0
 16 10  1  0
 17  8  1  0
 18  8  1  0
 19 15  1  0
 20 19  2  0
 21 19  1  0
 22 21  2  0
 23 20  1  0
 24 22  1  0
  7  8  1  0
  5  3  1  0
 24 23  2  0
 26 25  1  0
 27 25  2  0
 28 26  2  0
 29 26  1  0
 30 25  1  0
 31 35  1  0
 32 37  1  0
 33 31  1  0
 34 28  1  0
 35 29  2  0
 36 30  1  0
 37 36  1  0
 38 32  1  0
 39 32  1  0
 40 38  1  0
 41 39  1  0
 31 34  2  0
  1 42  1  0
  1 43  1  0
  3 44  1  1
  5 45  1  6
  6 46  1  6
  9 47  1  0
 15 48  1  0
 15 49  1  0
 16 50  1  0
 17 51  1  0
 17 52  1  0
 17 53  1  0
 18 54  1  0
 18 55  1  0
 18 56  1  0
 20 57  1  0
 21 58  1  0
 22 59  1  0
 23 60  1  0
 24 61  1  0
 28 62  1  0
 29 63  1  0
 33 64  1  0
 33 65  1  0
 34 66  1  0
 35 67  1  0
 36 68  1  0
 36 69  1  0
 37 70  1  0
 37 71  1  0
 38 72  1  0
 38 73  1  0
 39 74  1  0
 39 75  1  0
 40 76  1  0
 40 77  1  0
 40 78  1  0
 41 79  1  0
 41 80  1  0
 41 81  1  0
M  END
$$$$
