
     RDKit          3D

 81 82  0  0  0  0  0  0  0  0999 V2000
    0.0114    0.3976    0.0000 O   0  0  0  0  0  0  0  0  0  0  0  0
   -2.3738   -1.3976   -0.4223 N   0  0  0  0  0  0  0  0  0  0  0  0
   -1.2366   -1.3130    0.5167 C   0  0  1  0  0  0  0  0  0  0  0  0
   -1.6737   -2.1270   -1.3440 C   0  0  0  0  0  0  0  0  0  0  0  0
   -0.5003   -2.3514   -0.3650 C   0  0  1  0  0  0  0  0  0  0  0  0
   -3.0089   -0.1469   -0.8390 C   0  0  2  0  0  0  0  0  0  0  0  0
   -0.7229    0.4498    0.4009 S   0  0  0  0  0  0  0  0  0  0  0  0
   -2.4687    0.9818    0.0600 C   0  0  0  0  0  0  0  0  0  0  0  0
    0.8518   -1.9868   -0.8672 N   0  0  0  0  0  0  0  0  0  0  0  0
   -4.5242   -0.2882   -0.8034 C   0  0  0  0  0  0  0  0  0  0  0  0
    1.9523   -2.0722   -0.0419 C   0  0  0  0  0  0  0  0  0  0  0  0
   -1.8892   -2.3429   -2.5146 O   0  0  0  0  0  0  0  0  0  0  0  0
   -5.1813   -1.0630   -0.1266 O   0  0  0  0  0  0  0  0  0  0  0  0
    1.8774   -2.5192    1.1001 O   0  0  0  0  0  0  0  0  0  0  0  0
    3.2479   -1.5789   -0.6584 C   0  0  0  0  0  0  0  0  0  0  0  0
   -5.1468    0.6003   -1.6068 O   0  0  0  0  0  0  0  0  0  0  0  0
   -3.1946    1.1278    1.4045 C   0  0  0  0  0  0  0  0  0  0  0  0
   -2.4305    2.3283   -0.6667 C   0  0  0  0  0  0  0  0  0  0  0  0
    3.7311   -0.2929   -0.0373 C   0  0  0  0  0  0  0  0  0  0  0  0
    3.2467    0.9441   -0.4870 C   0  0  0  0  0  0  0  0  0  0  0  0
    4.6516   -0.3192    1.0204 C   0  0  0  0  0  0  0  0  0  0  0  0
    5.0937    0.8690    1.6044 C   0  0  0  0  0  0  0  0  0  0  0  0
    3.6874    2.1310    0.1014 C   0  0  0  0  0  0  0  0  0  0  0  0
    4.6127    2.0936    1.1437 C   0  0  0  0  0  0  0  0  0  0  0  0
    1.1823    0.4366    0.6539 C   0  0  0  0  0  0  0  0  0  0  0  0
    2.6178    0.2961    0.2870 C   0  0  0  0  0  0  0  0  0  0  0  0
    0.6401    1.5111    0.8601 O   0  0  0  0  0  0  0  0  0  0  0  0
    3.2190   -0.9469    0.0552 C   0  0  0  0  0  0  0  0  0  0  0  0
    3.3842    1.4595    0.1522 C   0  0  0  0  0  0  0  0  0  0  0  0
    0.5840   -0.7783    0.7175 O   0  0  0  0  0  0  0  0  0  0  0  0
    5.3562    0.1373   -0.3642 C   0  0  0  0  0  0  0  0  0  0  0  0
   -3.1323   -0.6263    0.0562 N   0  0  0  0  0  0  0  0  0  0  0  0
    6.6760    0.0662   -0.8217 N   0  0  0  0  0  0  0  0  0  0  0  0
    4.5744   -1.0185   -0.2873 C   0  0  0  0  0  0  0  0  0  0  0  0
    4.7375    1.3779   -0.1922 C   0  0  0  0  0  0  0  0  0  0  0  0
   -0.8112   -0.7639    1.0753 C   0  0  0  0  0  0  0  0  0  0  0  0
   -1.6835   -0.4320   -0.1490 C   0  0  0  0  0  0  0  0  0  0  0  0
   -3.6829    0.1835    1.1589 C   0  0  0  0  0  0  0  0  0  0  0  0
   -3.8937   -0.4178   -1.1880 C   0  0  0  0  0  0  0  0  0  0  0  0
   -3.5342    1.6978    1.0344 C   0  0  0  0  0  0  0  0  0  0  0  0
   -3.6751   -1.5307   -2.2098 C   0  0  0  0  0  0  0  0  0  0  0  0
   -0.7689   -0.1769    0.0000 H   0  0  0  0  0  0  0  0  0  0  0  0
    0.7575   -0.2208    0.0000 H   0  0  0  0  0  0  0  0  0  0  0  0
   -1.4966   -1.6540    1.5231 H   0  0  0  0  0  0  0  0  0  0  0  0
   -0.5079   -3.3703    0.0416 H   0  0  0  0  0  0  0  0  0  0  0  0
   -2.7294    0.0290   -1.8873 H   0  0  0  0  0  0  0  0  0  0  0  0
    0.9452   -1.5376   -1.7708 H   0  0  0  0  0  0  0  0  0  0  0  0
    3.1336   -1.4429   -1.7408 H   0  0  0  0  0  0  0  0  0  0  0  0
    3.9980   -2.3710   -0.5401 H   0  0  0  0  0  0  0  0  0  0  0  0
   -6.0986    0.3811   -1.5086 H   0  0  0  0  0  0  0  0  0  0  0  0
   -3.2579    0.1797    1.9505 H   0  0  0  0  0  0  0  0  0  0  0  0
   -4.2193    1.4891    1.2604 H   0  0  0  0  0  0  0  0  0  0  0  0
   -2.6917    1.8561    2.0532 H   0  0  0  0  0  0  0  0  0  0  0  0
   -1.8737    2.2687   -1.6087 H   0  0  0  0  0  0  0  0  0  0  0  0
   -3.4427    2.6708   -0.9073 H   0  0  0  0  0  0  0  0  0  0  0  0
   -1.9658    3.1064   -0.0503 H   0  0  0  0  0  0  0  0  0  0  0  0
    2.5179    0.9949   -1.2929 H   0  0  0  0  0  0  0  0  0  0  0  0
    5.0242   -1.2687    1.4008 H   0  0  0  0  0  0  0  0  0  0  0  0
    5.8068    0.8373    2.4247 H   0  0  0  0  0  0  0  0  0  0  0  0
    3.3046    3.0860   -0.2494 H   0  0  0  0  0  0  0  0  0  0  0  0
    4.9523    3.0187    1.6025 H   0  0  0  0  0  0  0  0  0  0  0  0
    2.6474   -1.8688    0.1242 H   0  0  0  0  0  0  0  0  0  0  0  0
    2.9304    2.4374    0.3016 H   0  0  0  0  0  0  0  0  0  0  0  0
    7.1354   -0.8178   -0.6246 H   0  0  0  0  0  0  0  0  0  0  0  0
    7.2479    0.8635   -0.5606 H   0  0  0  0  0  0  0  0  0  0  0  0
    5.0155   -1.9909   -0.4929 H   0  0  0  0  0  0  0  0  0  0  0  0
    5.3049    2.2963   -0.3225 H   0  0  0  0  0  0  0  0  0  0  0  0
   -0.9757   -0.0731    1.9102 H   0  0  0  0  0  0  0  0  0  0  0  0
   -1.0478   -1.7708    1.4372 H   0  0  0  0  0  0  0  0  0  0  0  0
   -1.4682    0.5847   -0.4994 H   0  0  0  0  0  0  0  0  0  0  0  0
   -1.3356   -1.0901   -0.9542 H   0  0  0  0  0  0  0  0  0  0  0  0
   -4.7492   -0.0522    1.2713 H   0  0  0  0  0  0  0  0  0  0  0  0
   -3.2350   -0.1405    2.1053 H   0  0  0  0  0  0  0  0  0  0  0  0
   -3.6604    0.5515   -1.6450 H   0  0  0  0  0  0  0  0  0  0  0  0
   -4.9673   -0.4123   -0.9613 H   0  0  0  0  0  0  0  0  0  0  0  0
   -4.0186    2.1860    1.8870 H   0  0  0  0  0  0  0  0  0  0  0  0
   -2.4845    2.0046    1.0382 H   0  0  0  0  0  0  0  0  0  0  0  0
   -4.0078    2.0794    0.1252 H   0  0  0  0  0  0  0  0  0  0  0  0
   -3.8377   -2.5168   -1.7627 H   0  0  0  0  0  0  0  0  0  0  0  0
   -2.6691   -1.5041   -2.6369 H   0  0  0  0  0  0  0  0  0  0  0  0
   -4.3831   -1.4180   -3.0379 H   0  0  0  0  0  0  0  0  0  0  0  0
  3  2  1  0
  4  2  1  0
  5  4  1  0
  6  2  1  0
  3  7  1  0
  8  6  1  0
  5  9  1  0
  6 10  1  0
 11  9  1  0
 12  4  2  0
 13 10  2  0
 14 11  2  0
 15 11  1  0
 16 10  1  0
 17  8  1  0
 18  8  1  0
 19 15  1  0
 20 19  2  0
 21 19  1  0
 22 21  2  0
 23 20  1  0
 24 22  1  0
  7  8  1  0
  5  3  1  0
 24 23  2  0
 26 25  1  0
 27 25  2  0
 28 26  2  0
 29 26  1  0
 30 25  1  0
 31 35  1  0
 32 37  1  0
 33 31  1  0
 34 28  1  0
 35 29  2  0
 36 30  1  0
 37 36  1  0
 38 32  1  0
 39 32  1  0
 40 38  1  0
 41 39  1  0
 31 34  2  0
  1 42  1  0
  1 43  1  0
  3 44  1  1
  5 45  1  1
  6 46  1  6
  9 47  1  0
 15 48  1  0
 15 49  1  0
 16 50  1  0
 17 51  1  0
 17 52  1  0
 17 53  1  0
 18 54  1  0
 18 55  1  0
 18 56  1  0
 20 57  1  0
 21 58  1  0
 22 59  1  0
 23 60  1  0
 24 61  1  0
 28 62  1  0
 29 63  1  0
 33 64  1  0
 33 65  1  0
 34 66  1  0
 35 67  1  0
 36 68  1  0
 36 69  1  0
 37 70  1  0
 37 71  1  0
 38 72  1  0
 38 73  1  0
 39 74  1  0
 39 75  1  0
 40 76  1  0
 40 77  1  0
 40 78  1  0
 41 79  1  0
 41 80  1  0
 41 81  1  0
M  END
$$$$
