
     RDKit          3D

 81 82  0  0  0  0  0  0  0  0999 V2000
   -0.0042    0.3979    0.0000 O   0  0  0  0  0  0  0  0  0  0  0  0
   -2.2910   -0.2848   -1.3429 N   0  0  0  0  0  0  0  0  0  0  0  0
   -1.3008   -1.0616   -0.5690 C   0  0  1  0  0  0  0  0  0  0  0  0
   -1.3606    0.6006   -1.8139 C   0  0  0  0  0  0  0  0  0  0  0  0
   -0.1891   -0.2541   -1.2824 C   0  0  1  0  0  0  0  0  0  0  0  0
   -3.4652    0.2291   -0.6320 C   0  0  2  0  0  0  0  0  0  0  0  0
   -1.7153   -0.6535    1.1755 S   0  0  0  0  0  0  0  0  0  0  0  0
   -3.5128   -0.4631    0.7460 C   0  0  0  0  0  0  0  0  0  0  0  0
    0.8047    0.4584   -0.4377 N   0  0  0  0  0  0  0  0  0  0  0  0
   -4.7634    0.0794   -1.4214 C   0  0  0  0  0  0  0  0  0  0  0  0
    1.7373   -0.2400    0.2987 C   0  0  0  0  0  0  0  0  0  0  0  0
   -1.4831    1.6950   -2.3149 O   0  0  0  0  0  0  0  0  0  0  0  0
   -5.8671    0.4427   -1.0409 O   0  0  0  0  0  0  0  0  0  0  0  0
    1.8007   -1.4663    0.2714 O   0  0  0  0  0  0  0  0  0  0  0  0
    2.6501    0.6228    1.1485 C   0  0  0  0  0  0  0  0  0  0  0  0
   -4.6331   -0.5174   -2.6221 O   0  0  0  0  0  0  0  0  0  0  0  0
   -4.1751    0.4104    1.8128 C   0  0  0  0  0  0  0  0  0  0  0  0
   -4.1500   -1.8593    0.7274 C   0  0  0  0  0  0  0  0  0  0  0  0
    4.0884    0.5785    0.6956 C   0  0  0  0  0  0  0  0  0  0  0  0
    4.6004    1.5572   -0.1684 C   0  0  0  0  0  0  0  0  0  0  0  0
    4.9316   -0.4572    1.1242 C   0  0  0  0  0  0  0  0  0  0  0  0
    6.2657   -0.5006    0.7158 C   0  0  0  0  0  0  0  0  0  0  0  0
    5.9356    1.5111   -0.5770 C   0  0  0  0  0  0  0  0  0  0  0  0
    6.7683    0.4844   -0.1331 C   0  0  0  0  0  0  0  0  0  0  0  0
    1.3425   -1.0320    0.6646 C   0  0  0  0  0  0  0  0  0  0  0  0
    2.7868   -0.8329    0.3673 C   0  0  0  0  0  0  0  0  0  0  0  0
    0.7922   -2.1209    0.6197 O   0  0  0  0  0  0  0  0  0  0  0  0
    3.5365   -1.9415   -0.0426 C   0  0  0  0  0  0  0  0  0  0  0  0
    3.4209    0.4078    0.5000 C   0  0  0  0  0  0  0  0  0  0  0  0
    0.7469    0.1500    0.9611 O   0  0  0  0  0  0  0  0  0  0  0  0
    5.5208   -0.5561   -0.2626 C   0  0  0  0  0  0  0  0  0  0  0  0
   -2.9634   -0.0194    0.2128 N   0  0  0  0  0  0  0  0  0  0  0  0
    6.9044   -0.4468   -0.4335 N   0  0  0  0  0  0  0  0  0  0  0  0
    4.8974   -1.8041   -0.3358 C   0  0  0  0  0  0  0  0  0  0  0  0
    4.7834    0.5347    0.2064 C   0  0  0  0  0  0  0  0  0  0  0  0
   -0.6577    0.0823    1.2810 C   0  0  0  0  0  0  0  0  0  0  0  0
   -1.5045    0.0584   -0.0020 C   0  0  0  0  0  0  0  0  0  0  0  0
   -3.5227    1.1216    0.9501 C   0  0  0  0  0  0  0  0  0  0  0  0
   -3.6417   -0.3038   -1.0644 C   0  0  0  0  0  0  0  0  0  0  0  0
   -3.3851    2.4896    0.2891 C   0  0  0  0  0  0  0  0  0  0  0  0
   -5.1345   -0.5825   -0.9269 C   0  0  0  0  0  0  0  0  0  0  0  0
   -0.7612   -0.2069    0.0000 H   0  0  0  0  0  0  0  0  0  0  0  0
    0.7654   -0.1910    0.0000 H   0  0  0  0  0  0  0  0  0  0  0  0
   -1.3269   -2.1287   -0.8089 H   0  0  0  0  0  0  0  0  0  0  0  0
    0.3103   -0.8016   -2.0921 H   0  0  0  0  0  0  0  0  0  0  0  0
   -3.3210    1.3122   -0.5063 H   0  0  0  0  0  0  0  0  0  0  0  0
    0.8066    1.4717   -0.4176 H   0  0  0  0  0  0  0  0  0  0  0  0
    2.5687    0.2759    2.1868 H   0  0  0  0  0  0  0  0  0  0  0  0
    2.2978    1.6617    1.1598 H   0  0  0  0  0  0  0  0  0  0  0  0
   -5.5314   -0.4956   -3.0117 H   0  0  0  0  0  0  0  0  0  0  0  0
   -5.2411    0.5480    1.5999 H   0  0  0  0  0  0  0  0  0  0  0  0
   -3.7245    1.4090    1.8604 H   0  0  0  0  0  0  0  0  0  0  0  0
   -4.1002   -0.0405    2.8105 H   0  0  0  0  0  0  0  0  0  0  0  0
   -3.7292   -2.5000   -0.0545 H   0  0  0  0  0  0  0  0  0  0  0  0
   -5.2287   -1.7965    0.5492 H   0  0  0  0  0  0  0  0  0  0  0  0
   -4.0199   -2.3715    1.6870 H   0  0  0  0  0  0  0  0  0  0  0  0
    3.9678    2.3663   -0.5269 H   0  0  0  0  0  0  0  0  0  0  0  0
    4.5495   -1.2398    1.7777 H   0  0  0  0  0  0  0  0  0  0  0  0
    6.9109   -1.3068    1.0559 H   0  0  0  0  0  0  0  0  0  0  0  0
    6.3275    2.2762   -1.2429 H   0  0  0  0  0  0  0  0  0  0  0  0
    7.8072    0.4480   -0.4523 H   0  0  0  0  0  0  0  0  0  0  0  0
    3.0690   -2.9216   -0.1235 H   0  0  0  0  0  0  0  0  0  0  0  0
    2.8764    1.2822    0.8460 H   0  0  0  0  0  0  0  0  0  0  0  0
    7.2193    0.4904   -0.6627 H   0  0  0  0  0  0  0  0  0  0  0  0
    7.2999   -1.1459   -1.0571 H   0  0  0  0  0  0  0  0  0  0  0  0
    5.4662   -2.6864   -0.6197 H   0  0  0  0  0  0  0  0  0  0  0  0
    5.2664    1.4987    0.3486 H   0  0  0  0  0  0  0  0  0  0  0  0
   -0.8657   -0.7841    1.9204 H   0  0  0  0  0  0  0  0  0  0  0  0
   -0.8694    0.9797    1.8709 H   0  0  0  0  0  0  0  0  0  0  0  0
   -1.2406    0.9203   -0.6285 H   0  0  0  0  0  0  0  0  0  0  0  0
   -1.1860   -0.8182   -0.5806 H   0  0  0  0  0  0  0  0  0  0  0  0
   -3.0683    1.1658    1.9462 H   0  0  0  0  0  0  0  0  0  0  0  0
   -4.5828    0.9386    1.1612 H   0  0  0  0  0  0  0  0  0  0  0  0
   -3.4841    0.5059   -1.7885 H   0  0  0  0  0  0  0  0  0  0  0  0
   -3.1976   -1.2078   -1.5024 H   0  0  0  0  0  0  0  0  0  0  0  0
   -3.8635    2.5203   -0.6940 H   0  0  0  0  0  0  0  0  0  0  0  0
   -3.8703    3.2482    0.9135 H   0  0  0  0  0  0  0  0  0  0  0  0
   -2.3382    2.7845    0.1757 H   0  0  0  0  0  0  0  0  0  0  0  0
   -5.6965    0.3265   -0.6869 H   0  0  0  0  0  0  0  0  0  0  0  0
   -5.3280   -1.3304   -0.1502 H   0  0  0  0  0  0  0  0  0  0  0  0
   -5.5287   -0.9711   -1.8723 H   0  0  0  0  0  0  0  0  0  0  0  0
  3  2  1  0
  4  2  1  0
  5  4  1  0
  6  2  1  0
  3  7  1  0
  8  6  1  0
  5  9  1  0
  6 10  1  0
 11  9  1  0
 12  4  2  0
 13 10  2  0
 14 11  2  0
 15 11  1  0
 16 10  1  0
 17  8  1  0
 18  8  1  0
 19 15  1  0
 20 19  2  0
 21 19  1  0
 22 21  2  0
 23 20  1  0
 24 22  1  0
  7  8  1  0
  5  3  1  0
 24 23  2  0
 26 25  1  0
 27 25  2  0
 28 26  2  0
 29 26  1  0
 30 25  1  0
 31 35  1  0
 32 37  1  0
 33 31  1  0
 34 28  1  0
 35 29  2  0
 36 30  1  0
 37 36  1  0
 38 32  1  0
 39 32  1  0
 40 38  1  0
 41 39  1  0
 31 34  2  0
  1 42  1  0
  1 43  1  0
  3 44  1  1
  5 45  1  6
  6 46  1  1
  9 47  1  0
 15 48  1  0
 15 49  1  0
 16 50  1  0
 17 51  1  0
 17 52  1  0
 17 53  1  0
 18 54  1  0
 18 55  1  0
 18 56  1  0
 20 57  1  0
 21 58  1  0
 22 59  1  0
 23 60  1  0
 24 61  1  0
 28 62  1  0
 29 63  1  0
 33 64  1  0
 33 65  1  0
 34 66  1  0
 35 67  1  0
 36 68  1  0
 36 69  1  0
 37 70  1  0
 37 71  1  0
 38 72  1  0
 38 73  1  0
 39 74  1  0
 39 75  1  0
 40 76  1  0
 40 77  1  0
 40 78  1  0
 41 79  1  0
 41 80  1  0
 41 81  1  0
M  END
$$$$
