
     RDKit          3D

 81 82  0  0  0  0  0  0  0  0999 V2000
   -0.0496    0.3945    0.0000 O   0  0  0  0  0  0  0  0  0  0  0  0
   -2.2592    0.5183    1.7109 N   0  0  0  0  0  0  0  0  0  0  0  0
   -1.3007    1.2695    0.8810 C   0  0  1  0  0  0  0  0  0  0  0  0
   -1.3634   -0.4614    2.0260 C   0  0  0  0  0  0  0  0  0  0  0  0
   -0.1803    0.3675    1.4729 C   0  0  1  0  0  0  0  0  0  0  0  0
   -3.5563    0.2145    1.1190 C   0  0  2  0  0  0  0  0  0  0  0  0
   -1.8177    0.9474   -0.8571 S   0  0  0  0  0  0  0  0  0  0  0  0
   -3.3450    0.0073   -0.3970 C   0  0  0  0  0  0  0  0  0  0  0  0
    0.7171   -0.3399    0.5198 N   0  0  0  0  0  0  0  0  0  0  0  0
   -4.4973    1.3654    1.4671 C   0  0  0  0  0  0  0  0  0  0  0  0
    1.6292    0.3615   -0.2392 C   0  0  0  0  0  0  0  0  0  0  0  0
   -1.5257   -1.5822    2.4506 O   0  0  0  0  0  0  0  0  0  0  0  0
   -4.1980    2.5261    1.6985 O   0  0  0  0  0  0  0  0  0  0  0  0
    1.7766    1.5750   -0.1173 O   0  0  0  0  0  0  0  0  0  0  0  0
    2.4032   -0.4806   -1.2374 C   0  0  0  0  0  0  0  0  0  0  0  0
   -5.7948    0.9900    1.4863 O   0  0  0  0  0  0  0  0  0  0  0  0
   -4.4931    0.5033   -1.2856 C   0  0  0  0  0  0  0  0  0  0  0  0
   -3.0844   -1.4738   -0.7192 C   0  0  0  0  0  0  0  0  0  0  0  0
    3.8945   -0.4291   -1.0191 C   0  0  0  0  0  0  0  0  0  0  0  0
    4.5349   -1.3870   -0.2200 C   0  0  0  0  0  0  0  0  0  0  0  0
    4.6580    0.5968   -1.5940 C   0  0  0  0  0  0  0  0  0  0  0  0
    6.0372    0.6543   -1.3896 C   0  0  0  0  0  0  0  0  0  0  0  0
    5.9152   -1.3275   -0.0162 C   0  0  0  0  0  0  0  0  0  0  0  0
    6.6656   -0.3094   -0.6033 C   0  0  0  0  0  0  0  0  0  0  0  0
    1.1469   -1.7974   -0.3202 C   0  0  0  0  0  0  0  0  0  0  0  0
    2.4171   -1.0386   -0.1623 C   0  0  0  0  0  0  0  0  0  0  0  0
    0.9847   -2.9350    0.0898 O   0  0  0  0  0  0  0  0  0  0  0  0
    3.5241   -1.7004    0.3807 C   0  0  0  0  0  0  0  0  0  0  0  0
    2.5324    0.3137   -0.5060 C   0  0  0  0  0  0  0  0  0  0  0  0
    0.2323   -1.0515   -0.9807 O   0  0  0  0  0  0  0  0  0  0  0  0
    4.8744    0.3077    0.1513 C   0  0  0  0  0  0  0  0  0  0  0  0
   -2.1968    0.5089   -0.3368 N   0  0  0  0  0  0  0  0  0  0  0  0
    6.0477    1.0111    0.4380 N   0  0  0  0  0  0  0  0  0  0  0  0
    4.7363   -1.0234    0.5521 C   0  0  0  0  0  0  0  0  0  0  0  0
    3.7499    0.9821   -0.3310 C   0  0  0  0  0  0  0  0  0  0  0  0
   -1.0644   -1.6515   -1.1149 C   0  0  0  0  0  0  0  0  0  0  0  0
   -2.1121   -0.5519   -1.3669 C   0  0  0  0  0  0  0  0  0  0  0  0
   -2.4259    0.0023    1.0251 C   0  0  0  0  0  0  0  0  0  0  0  0
   -3.1529    1.5447   -0.7624 C   0  0  0  0  0  0  0  0  0  0  0  0
   -3.7447   -0.7283    1.2610 C   0  0  0  0  0  0  0  0  0  0  0  0
   -3.1410    2.7945    0.1122 C   0  0  0  0  0  0  0  0  0  0  0  0
    0.7827   -0.1022    0.0000 H   0  0  0  0  0  0  0  0  0  0  0  0
   -0.7331   -0.2923    0.0000 H   0  0  0  0  0  0  0  0  0  0  0  0
   -1.2394    2.3273    1.1517 H   0  0  0  0  0  0  0  0  0  0  0  0
    0.3976    0.8375    2.2788 H   0  0  0  0  0  0  0  0  0  0  0  0
   -3.9453   -0.6908    1.6005 H   0  0  0  0  0  0  0  0  0  0  0  0
    0.5886   -1.3326    0.3553 H   0  0  0  0  0  0  0  0  0  0  0  0
    2.1534   -0.1204   -2.2433 H   0  0  0  0  0  0  0  0  0  0  0  0
    2.0670   -1.5242   -1.2073 H   0  0  0  0  0  0  0  0  0  0  0  0
   -6.2750    1.8092    1.7340 H   0  0  0  0  0  0  0  0  0  0  0  0
   -4.2909    0.3171   -2.3478 H   0  0  0  0  0  0  0  0  0  0  0  0
   -4.6730    1.5786   -1.1753 H   0  0  0  0  0  0  0  0  0  0  0  0
   -5.4251   -0.0186   -1.0429 H   0  0  0  0  0  0  0  0  0  0  0  0
   -3.9470   -2.0846   -0.4294 H   0  0  0  0  0  0  0  0  0  0  0  0
   -2.9244   -1.6313   -1.7931 H   0  0  0  0  0  0  0  0  0  0  0  0
   -2.2101   -1.8748   -0.1956 H   0  0  0  0  0  0  0  0  0  0  0  0
    3.9661   -2.1869    0.2506 H   0  0  0  0  0  0  0  0  0  0  0  0
    4.1775    1.3673   -2.1949 H   0  0  0  0  0  0  0  0  0  0  0  0
    6.6177    1.4571   -1.8380 H   0  0  0  0  0  0  0  0  0  0  0  0
    6.4077   -2.0730    0.6025 H   0  0  0  0  0  0  0  0  0  0  0  0
    7.7391   -0.2628   -0.4405 H   0  0  0  0  0  0  0  0  0  0  0  0
    3.4453   -2.7422    0.6862 H   0  0  0  0  0  0  0  0  0  0  0  0
    1.6783    0.8668   -0.8915 H   0  0  0  0  0  0  0  0  0  0  0  0
    6.1919    1.8293   -0.1463 H   0  0  0  0  0  0  0  0  0  0  0  0
    6.8769    0.4279    0.4998 H   0  0  0  0  0  0  0  0  0  0  0  0
    5.5731   -1.5497    1.0032 H   0  0  0  0  0  0  0  0  0  0  0  0
    3.8090    2.0404   -0.5732 H   0  0  0  0  0  0  0  0  0  0  0  0
   -1.0376   -2.3234   -1.9813 H   0  0  0  0  0  0  0  0  0  0  0  0
   -1.3319   -2.2425   -0.2315 H   0  0  0  0  0  0  0  0  0  0  0  0
   -1.8368   -0.0703   -2.3149 H   0  0  0  0  0  0  0  0  0  0  0  0
   -3.0910   -1.0227   -1.5207 H   0  0  0  0  0  0  0  0  0  0  0  0
   -2.3488    0.8280    1.7433 H   0  0  0  0  0  0  0  0  0  0  0  0
   -1.6007   -0.6611    1.3131 H   0  0  0  0  0  0  0  0  0  0  0  0
   -4.1735    1.1479   -0.8241 H   0  0  0  0  0  0  0  0  0  0  0  0
   -2.8878    1.8730   -1.7759 H   0  0  0  0  0  0  0  0  0  0  0  0
   -4.6075   -0.0842    1.0674 H   0  0  0  0  0  0  0  0  0  0  0  0
   -3.8049   -1.0474    2.3063 H   0  0  0  0  0  0  0  0  0  0  0  0
   -3.8280   -1.6244    0.6394 H   0  0  0  0  0  0  0  0  0  0  0  0
   -3.7797    3.5640   -0.3348 H   0  0  0  0  0  0  0  0  0  0  0  0
   -2.1309    3.2062    0.1964 H   0  0  0  0  0  0  0  0  0  0  0  0
   -3.5234    2.5974    1.1169 H   0  0  0  0  0  0  0  0  0  0  0  0
  3  2  1  0
  4  2  1  0
  5  4  1  0
  6  2  1  0
  3  7  1  0
  8  6  1  0
  5  9  1  0
  6 10  1  0
 11  9  1  0
 12  4  2  0
 13 10  2  0
 14 11  2  0
 15 11  1  0
 16 10  1  0
 17  8  1  0
 18  8  1  0
 19 15  1  0
 20 19  2  0
 21 19  1  0
 22 21  2  0
 23 20  1  0
 24 22  1  0
  7  8  1  0
  5  3  1  0
 24 23  2  0
 26 25  1  0
 27 25  2  0
 28 26  2  0
 29 26  1  0
 30 25  1  0
 31 35  1  0
 32 37  1  0
 33 31  1  0
 34 28  1  0
 35 29  2  0
 36 30  1  0
 37 36  1  0
 38 32  1  0
 39 32  1  0
 40 38  1  0
 41 39  1  0
 31 34  2  0
  1 42  1  0
  1 43  1  0
  3 44  1  1
  5 45  1  1
  6 46  1  1
  9 47  1  0
 15 48  1  0
 15 49  1  0
 16 50  1  0
 17 51  1  0
 17 52  1  0
 17 53  1  0
 18 54  1  0
 18 55  1  0
 18 56  1  0
 20 57  1  0
 21 58  1  0
 22 59  1  0
 23 60  1  0
 24 61  1  0
 28 62  1  0
 29 63  1  0
 33 64  1  0
 33 65  1  0
 34 66  1  0
 35 67  1  0
 36 68  1  0
 36 69  1  0
 37 70  1  0
 37 71  1  0
 38 72  1  0
 38 73  1  0
 39 74  1  0
 39 75  1  0
 40 76  1  0
 40 77  1  0
 40 78  1  0
 41 79  1  0
 41 80  1  0
 41 81  1  0
M  END
$$$$
