
     RDKit          3D

 81 82  0  0  0  0  0  0  0  0999 V2000
    0.0343    0.3968    0.0000 O   0  0  0  0  0  0  0  0  0  0  0  0
   -2.6109    1.0270   -0.4114 N   0  0  0  0  0  0  0  0  0  0  0  0
   -1.5847    0.2329   -1.1109 C   0  0  1  0  0  0  0  0  0  0  0  0
   -1.7008    1.7094    0.3420 C   0  0  0  0  0  0  0  0  0  0  0  0
   -0.5266    1.2173   -0.5365 C   0  0  1  0  0  0  0  0  0  0  0  0
   -3.7148    0.2979    0.2000 C   0  0  2  0  0  0  0  0  0  0  0  0
   -1.6805   -1.4447   -0.3581 S   0  0  0  0  0  0  0  0  0  0  0  0
   -3.1796   -1.0749    0.6651 C   0  0  0  0  0  0  0  0  0  0  0  0
    0.6357    0.6501    0.1959 N   0  0  0  0  0  0  0  0  0  0  0  0
   -4.8361    0.2077   -0.8320 C   0  0  0  0  0  0  0  0  0  0  0  0
    1.6132   -0.0546   -0.4715 C   0  0  0  0  0  0  0  0  0  0  0  0
   -1.8250    2.3382    1.3678 O   0  0  0  0  0  0  0  0  0  0  0  0
   -4.7287    0.1364   -2.0462 O   0  0  0  0  0  0  0  0  0  0  0  0
    1.5740   -0.2306   -1.6855 O   0  0  0  0  0  0  0  0  0  0  0  0
    2.7132   -0.6080    0.4154 C   0  0  0  0  0  0  0  0  0  0  0  0
   -6.0615    0.1789   -0.2624 O   0  0  0  0  0  0  0  0  0  0  0  0
   -2.7277   -1.0194    2.1341 C   0  0  0  0  0  0  0  0  0  0  0  0
   -4.1626   -2.2424    0.4998 C   0  0  0  0  0  0  0  0  0  0  0  0
    4.0600    0.0095    0.1320 C   0  0  0  0  0  0  0  0  0  0  0  0
    4.5289    1.0911    0.8916 C   0  0  0  0  0  0  0  0  0  0  0  0
    4.8529   -0.4797   -0.9156 C   0  0  0  0  0  0  0  0  0  0  0  0
    6.0988    0.0885   -1.1837 C   0  0  0  0  0  0  0  0  0  0  0  0
    5.7755    1.6594    0.6185 C   0  0  0  0  0  0  0  0  0  0  0  0
    6.5614    1.1541   -0.4154 C   0  0  0  0  0  0  0  0  0  0  0  0
    1.2094   -0.6750   -0.3279 C   0  0  0  0  0  0  0  0  0  0  0  0
    2.6847   -0.4905   -0.4111 C   0  0  0  0  0  0  0  0  0  0  0  0
    0.5661   -1.3397   -1.1231 O   0  0  0  0  0  0  0  0  0  0  0  0
    3.3704   -1.1023   -1.4686 C   0  0  0  0  0  0  0  0  0  0  0  0
    3.4003    0.2867    0.5072 C   0  0  0  0  0  0  0  0  0  0  0  0
    0.7036   -0.0029    0.7343 O   0  0  0  0  0  0  0  0  0  0  0  0
    5.4797   -0.2174   -0.6490 C   0  0  0  0  0  0  0  0  0  0  0  0
   -2.9046    0.9960    0.0456 N   0  0  0  0  0  0  0  0  0  0  0  0
    6.8400    0.0385   -0.8486 N   0  0  0  0  0  0  0  0  0  0  0  0
    4.7543   -0.9467   -1.5948 C   0  0  0  0  0  0  0  0  0  0  0  0
    4.7846    0.4370    0.3717 C   0  0  0  0  0  0  0  0  0  0  0  0
   -0.7234   -0.0943    0.9076 C   0  0  0  0  0  0  0  0  0  0  0  0
   -1.4327    0.9695    0.0484 C   0  0  0  0  0  0  0  0  0  0  0  0
   -3.4979    0.8351    1.3747 C   0  0  0  0  0  0  0  0  0  0  0  0
   -3.5046    0.1953   -1.0276 C   0  0  0  0  0  0  0  0  0  0  0  0
   -4.9814    1.1884    1.4317 C   0  0  0  0  0  0  0  0  0  0  0  0
   -3.4011   -1.3199   -0.9025 C   0  0  0  0  0  0  0  0  0  0  0  0
   -0.7775   -0.1325    0.0000 H   0  0  0  0  0  0  0  0  0  0  0  0
    0.7432   -0.2643    0.0000 H   0  0  0  0  0  0  0  0  0  0  0  0
   -1.6988    0.2528   -2.1985 H   0  0  0  0  0  0  0  0  0  0  0  0
   -0.1997    1.9897   -1.2446 H   0  0  0  0  0  0  0  0  0  0  0  0
   -4.0867    0.8928    1.0440 H   0  0  0  0  0  0  0  0  0  0  0  0
    0.6944    0.7574    1.2025 H   0  0  0  0  0  0  0  0  0  0  0  0
    2.7538   -1.6945    0.2596 H   0  0  0  0  0  0  0  0  0  0  0  0
    2.4601   -0.4696    1.4738 H   0  0  0  0  0  0  0  0  0  0  0  0
   -6.6787    0.1174   -1.0224 H   0  0  0  0  0  0  0  0  0  0  0  0
   -2.3175   -1.9808    2.4675 H   0  0  0  0  0  0  0  0  0  0  0  0
   -3.5785   -0.7870    2.7856 H   0  0  0  0  0  0  0  0  0  0  0  0
   -1.9646   -0.2555    2.3122 H   0  0  0  0  0  0  0  0  0  0  0  0
   -4.4523   -2.4040   -0.5448 H   0  0  0  0  0  0  0  0  0  0  0  0
   -5.0772   -2.0638    1.0776 H   0  0  0  0  0  0  0  0  0  0  0  0
   -3.7324   -3.1838    0.8641 H   0  0  0  0  0  0  0  0  0  0  0  0
    3.9292    1.5007    1.7030 H   0  0  0  0  0  0  0  0  0  0  0  0
    4.4980   -1.3016   -1.5363 H   0  0  0  0  0  0  0  0  0  0  0  0
    6.7090   -0.3007   -1.9968 H   0  0  0  0  0  0  0  0  0  0  0  0
    6.1363    2.4933    1.2128 H   0  0  0  0  0  0  0  0  0  0  0  0
    7.5316    1.5934   -0.6276 H   0  0  0  0  0  0  0  0  0  0  0  0
    2.8307   -1.6906   -2.2083 H   0  0  0  0  0  0  0  0  0  0  0  0
    2.8974    0.7933    1.3268 H   0  0  0  0  0  0  0  0  0  0  0  0
    7.3201   -0.6784   -1.3858 H   0  0  0  0  0  0  0  0  0  0  0  0
    7.3420    0.2861   -0.0016 H   0  0  0  0  0  0  0  0  0  0  0  0
    5.2627   -1.3989   -2.4443 H   0  0  0  0  0  0  0  0  0  0  0  0
    5.3187    1.0746    1.0723 H   0  0  0  0  0  0  0  0  0  0  0  0
   -1.0688   -1.1116    0.6980 H   0  0  0  0  0  0  0  0  0  0  0  0
   -0.9114    0.0920    1.9713 H   0  0  0  0  0  0  0  0  0  0  0  0
   -1.0530    0.9336   -0.9809 H   0  0  0  0  0  0  0  0  0  0  0  0
   -1.0911    1.9495    0.4101 H   0  0  0  0  0  0  0  0  0  0  0  0
   -2.9857    1.5132    2.0712 H   0  0  0  0  0  0  0  0  0  0  0  0
   -3.3561   -0.1820    1.7619 H   0  0  0  0  0  0  0  0  0  0  0  0
   -4.5638    0.4627   -1.1268 H   0  0  0  0  0  0  0  0  0  0  0  0
   -3.0631    0.4949   -1.9867 H   0  0  0  0  0  0  0  0  0  0  0  0
   -5.1618    2.1904    1.0320 H   0  0  0  0  0  0  0  0  0  0  0  0
   -5.3231    1.1767    2.4708 H   0  0  0  0  0  0  0  0  0  0  0  0
   -5.5942    0.4735    0.8766 H   0  0  0  0  0  0  0  0  0  0  0  0
   -2.3662   -1.6604   -0.9992 H   0  0  0  0  0  0  0  0  0  0  0  0
   -3.8089   -1.6831    0.0448 H   0  0  0  0  0  0  0  0  0  0  0  0
   -3.9716   -1.7932   -1.7082 H   0  0  0  0  0  0  0  0  0  0  0  0
  3  2  1  0
  4  2  1  0
  5  4  1  0
  6  2  1  0
  3  7  1  0
  8  6  1  0
  5  9  1  0
  6 10  1  0
 11  9  1  0
 12  4  2  0
 13 10  2  0
 14 11  2  0
 15 11  1  0
 16 10  1  0
 17  8  1  0
 18  8  1  0
 19 15  1  0
 20 19  2  0
 21 19  1  0
 22 21  2  0
 23 20  1  0
 24 22  1  0
  7  8  1  0
  5  3  1  0
 24 23  2  0
 26 25  1  0
 27 25  2  0
 28 26  2  0
 29 26  1  0
 30 25  1  0
 31 35  1  0
 32 37  1  0
 33 31  1  0
 34 28  1  0
 35 29  2  0
 36 30  1  0
 37 36  1  0
 38 32  1  0
 39 32  1  0
 40 38  1  0
 41 39  1  0
 31 34  2  0
  1 42  1  0
  1 43  1  0
  3 44  1  6
  5 45  1  6
  6 46  1  1
  9 47  1  0
 15 48  1  0
 15 49  1  0
 16 50  1  0
 17 51  1  0
 17 52  1  0
 17 53  1  0
 18 54  1  0
 18 55  1  0
 18 56  1  0
 20 57  1  0
 21 58  1  0
 22 59  1  0
 23 60  1  0
 24 61  1  0
 28 62  1  0
 29 63  1  0
 33 64  1  0
 33 65  1  0
 34 66  1  0
 35 67  1  0
 36 68  1  0
 36 69  1  0
 37 70  1  0
 37 71  1  0
 38 72  1  0
 38 73  1  0
 39 74  1  0
 39 75  1  0
 40 76  1  0
 40 77  1  0
 40 78  1  0
 41 79  1  0
 41 80  1  0
 41 81  1  0
M  END
$$$$
