
     RDKit          3D

 81 82  0  0  0  0  0  0  0  0999 V2000
    0.0100    0.3976    0.0000 O   0  0  0  0  0  0  0  0  0  0  0  0
   -2.2484    0.8776   -1.2113 N   0  0  0  0  0  0  0  0  0  0  0  0
   -1.2471   -0.2078   -1.2661 C   0  0  1  0  0  0  0  0  0  0  0  0
   -1.3383    1.8161   -0.8070 C   0  0  0  0  0  0  0  0  0  0  0  0
   -0.1492    0.8680   -1.0779 C   0  0  1  0  0  0  0  0  0  0  0  0
   -3.4481    0.6561   -0.4022 C   0  0  2  0  0  0  0  0  0  0  0  0
   -1.6961   -1.2706    0.1679 S   0  0  0  0  0  0  0  0  0  0  0  0
   -3.4913   -0.8345   -0.0184 C   0  0  0  0  0  0  0  0  0  0  0  0
    0.8110    0.6936    0.0434 N   0  0  0  0  0  0  0  0  0  0  0  0
   -4.6840    1.1373   -1.1490 C   0  0  0  0  0  0  0  0  0  0  0  0
    1.7658   -0.3013    0.0050 C   0  0  0  0  0  0  0  0  0  0  0  0
   -1.4906    2.9010   -0.2933 O   0  0  0  0  0  0  0  0  0  0  0  0
   -4.8209    1.2578   -2.3557 O   0  0  0  0  0  0  0  0  0  0  0  0
    1.8683   -1.0652   -0.9514 O   0  0  0  0  0  0  0  0  0  0  0  0
    2.6426   -0.3886    1.2418 C   0  0  0  0  0  0  0  0  0  0  0  0
   -5.7139    1.4173   -0.3219 O   0  0  0  0  0  0  0  0  0  0  0  0
   -4.1000   -1.7495   -1.0908 C   0  0  0  0  0  0  0  0  0  0  0  0
   -4.1871   -1.0636    1.3255 C   0  0  0  0  0  0  0  0  0  0  0  0
    4.1031   -0.1577    0.9457 C   0  0  0  0  0  0  0  0  0  0  0  0
    4.6933    1.0939    1.1729 C   0  0  0  0  0  0  0  0  0  0  0  0
    4.8885   -1.1941    0.4218 C   0  0  0  0  0  0  0  0  0  0  0  0
    6.2414   -0.9887    0.1468 C   0  0  0  0  0  0  0  0  0  0  0  0
    6.0481    1.2969    0.8974 C   0  0  0  0  0  0  0  0  0  0  0  0
    6.8218    0.2551    0.3874 C   0  0  0  0  0  0  0  0  0  0  0  0
    1.2505    0.3716   -0.5737 C   0  0  0  0  0  0  0  0  0  0  0  0
    2.6742    0.0116   -0.3319 C   0  0  0  0  0  0  0  0  0  0  0  0
    0.6913    0.2275   -1.6489 O   0  0  0  0  0  0  0  0  0  0  0  0
    3.4070   -0.5433   -1.3879 C   0  0  0  0  0  0  0  0  0  0  0  0
    3.3076    0.2256    0.8979 C   0  0  0  0  0  0  0  0  0  0  0  0
    0.6831    0.8581    0.5573 O   0  0  0  0  0  0  0  0  0  0  0  0
    5.3679   -0.7381    0.0342 C   0  0  0  0  0  0  0  0  0  0  0  0
   -3.0508    0.3320    0.7217 N   0  0  0  0  0  0  0  0  0  0  0  0
    6.7386   -0.9753    0.1728 N   0  0  0  0  0  0  0  0  0  0  0  0
    4.7489   -0.8943   -1.2079 C   0  0  0  0  0  0  0  0  0  0  0  0
    4.6508   -0.1299    1.0677 C   0  0  0  0  0  0  0  0  0  0  0  0
   -0.6999    1.2455    0.4430 C   0  0  0  0  0  0  0  0  0  0  0  0
   -1.6157    0.0194    0.5767 C   0  0  0  0  0  0  0  0  0  0  0  0
   -3.8151   -0.8459    1.1676 C   0  0  0  0  0  0  0  0  0  0  0  0
   -3.6286    0.9434   -0.4848 C   0  0  0  0  0  0  0  0  0  0  0  0
   -3.8193   -2.0488    0.2265 C   0  0  0  0  0  0  0  0  0  0  0  0
   -3.7834    2.4489   -0.3018 C   0  0  0  0  0  0  0  0  0  0  0  0
   -0.7684   -0.1796    0.0000 H   0  0  0  0  0  0  0  0  0  0  0  0
    0.7584   -0.2180    0.0000 H   0  0  0  0  0  0  0  0  0  0  0  0
   -1.2380   -0.7195   -2.2333 H   0  0  0  0  0  0  0  0  0  0  0  0
    0.3779    1.1362   -2.0027 H   0  0  0  0  0  0  0  0  0  0  0  0
   -3.3557    1.2824    0.4965 H   0  0  0  0  0  0  0  0  0  0  0  0
    0.7249    1.2741    0.8713 H   0  0  0  0  0  0  0  0  0  0  0  0
    2.5007   -1.3836    1.6829 H   0  0  0  0  0  0  0  0  0  0  0  0
    2.3037    0.3223    2.0057 H   0  0  0  0  0  0  0  0  0  0  0  0
   -6.4175    1.7448   -0.9221 H   0  0  0  0  0  0  0  0  0  0  0  0
   -5.1761   -1.5672   -1.1949 H   0  0  0  0  0  0  0  0  0  0  0  0
   -3.9821   -2.8079   -0.8290 H   0  0  0  0  0  0  0  0  0  0  0  0
   -3.6490   -1.5967   -2.0776 H   0  0  0  0  0  0  0  0  0  0  0  0
   -3.7461   -0.4565    2.1237 H   0  0  0  0  0  0  0  0  0  0  0  0
   -4.1334   -2.1139    1.6332 H   0  0  0  0  0  0  0  0  0  0  0  0
   -5.2482   -0.7995    1.2643 H   0  0  0  0  0  0  0  0  0  0  0  0
    4.1075    1.9206    1.5685 H   0  0  0  0  0  0  0  0  0  0  0  0
    4.4454   -2.1673    0.2146 H   0  0  0  0  0  0  0  0  0  0  0  0
    6.8403   -1.7992   -0.2610 H   0  0  0  0  0  0  0  0  0  0  0  0
    6.5008    2.2682    1.0804 H   0  0  0  0  0  0  0  0  0  0  0  0
    7.8761    0.4135    0.1720 H   0  0  0  0  0  0  0  0  0  0  0  0
    2.9430   -0.6935   -2.3612 H   0  0  0  0  0  0  0  0  0  0  0  0
    2.7777    0.6823    1.7303 H   0  0  0  0  0  0  0  0  0  0  0  0
    7.0368   -1.1441    1.1288 H   0  0  0  0  0  0  0  0  0  0  0  0
    7.1096   -1.6643   -0.4738 H   0  0  0  0  0  0  0  0  0  0  0  0
    5.3074   -1.2914   -2.0514 H   0  0  0  0  0  0  0  0  0  0  0  0
    5.1332    0.0758    2.0193 H   0  0  0  0  0  0  0  0  0  0  0  0
   -0.8625    1.7857   -0.4960 H   0  0  0  0  0  0  0  0  0  0  0  0
   -0.8921    1.9473    1.2616 H   0  0  0  0  0  0  0  0  0  0  0  0
   -1.2776   -0.5310    1.4653 H   0  0  0  0  0  0  0  0  0  0  0  0
   -1.4436   -0.6559   -0.2700 H   0  0  0  0  0  0  0  0  0  0  0  0
   -4.8525   -0.5417    1.3586 H   0  0  0  0  0  0  0  0  0  0  0  0
   -3.4324   -1.1671    2.1449 H   0  0  0  0  0  0  0  0  0  0  0  0
   -4.6337    0.5505   -0.6849 H   0  0  0  0  0  0  0  0  0  0  0  0
   -3.0353    0.7257   -1.3813 H   0  0  0  0  0  0  0  0  0  0  0  0
   -4.2061   -1.7902   -0.7638 H   0  0  0  0  0  0  0  0  0  0  0  0
   -4.4608   -2.8358    0.6378 H   0  0  0  0  0  0  0  0  0  0  0  0
   -2.8182   -2.4736    0.1078 H   0  0  0  0  0  0  0  0  0  0  0  0
   -4.4417    2.6749    0.5442 H   0  0  0  0  0  0  0  0  0  0  0  0
   -2.8272    2.9488   -0.1275 H   0  0  0  0  0  0  0  0  0  0  0  0
   -4.2310    2.8898   -1.1984 H   0  0  0  0  0  0  0  0  0  0  0  0
  3  2  1  0
  4  2  1  0
  5  4  1  0
  6  2  1  0
  3  7  1  0
  8  6  1  0
  5  9  1  0
  6 10  1  0
 11  9  1  0
 12  4  2  0
 13 10  2  0
 14 11  2  0
 15 11  1  0
 16 10  1  0
 17  8  1  0
 18  8  1  0
 19 15  1  0
 20 19  2  0
 21 19  1  0
 22 21  2  0
 23 20  1  0
 24 22  1  0
  7  8  1  0
  5  3  1  0
 24 23  2  0
 26 25  1  0
 27 25  2  0
 28 26  2  0
 29 26  1  0
 30 25  1  0
 31 35  1  0
 32 37  1  0
 33 31  1  0
 34 28  1  0
 35 29  2  0
 36 30  1  0
 37 36  1  0
 38 32  1  0
 39 32  1  0
 40 38  1  0
 41 39  1  0
 31 34  2  0
  1 42  1  0
  1 43  1  0
  3 44  1  6
  5 45  1  6
  6 46  1  1
  9 47  1  0
 15 48  1  0
 15 49  1  0
 16 50  1  0
 17 51  1  0
 17 52  1  0
 17 53  1  0
 18 54  1  0
 18 55  1  0
 18 56  1  0
 20 57  1  0
 21 58  1  0
 22 59  1  0
 23 60  1  0
 24 61  1  0
 28 62  1  0
 29 63  1  0
 33 64  1  0
 33 65  1  0
 34 66  1  0
 35 67  1  0
 36 68  1  0
 36 69  1  0
 37 70  1  0
 37 71  1  0
 38 72  1  0
 38 73  1  0
 39 74  1  0
 39 75  1  0
 40 76  1  0
 40 77  1  0
 40 78  1  0
 41 79  1  0
 41 80  1  0
 41 81  1  0
M  END
$$$$
