
     RDKit          3D

 81 82  0  0  0  0  0  0  0  0999 V2000
    0.0362    0.3968    0.0000 O   0  0  0  0  0  0  0  0  0  0  0  0
   -2.2494   -0.4462    1.8215 N   0  0  0  0  0  0  0  0  0  0  0  0
   -1.2421    0.5967    1.5570 C   0  0  1  0  0  0  0  0  0  0  0  0
   -1.4259   -1.4663    1.4433 C   0  0  0  0  0  0  0  0  0  0  0  0
   -0.1869   -0.5404    1.4674 C   0  0  1  0  0  0  0  0  0  0  0  0
   -3.5678   -0.2614    1.2284 C   0  0  2  0  0  0  0  0  0  0  0  0
   -1.7734    1.3857   -0.0205 S   0  0  0  0  0  0  0  0  0  0  0  0
   -3.3827    0.4726   -0.1190 C   0  0  0  0  0  0  0  0  0  0  0  0
    0.6852   -0.5875    0.2646 N   0  0  0  0  0  0  0  0  0  0  0  0
   -4.4234    0.4956    2.2412 C   0  0  0  0  0  0  0  0  0  0  0  0
    1.6743    0.3549    0.0785 C   0  0  0  0  0  0  0  0  0  0  0  0
   -1.6671   -2.6014    1.1051 O   0  0  0  0  0  0  0  0  0  0  0  0
   -4.0432    1.2730    3.1031 O   0  0  0  0  0  0  0  0  0  0  0  0
    1.8763    1.2524    0.8938 O   0  0  0  0  0  0  0  0  0  0  0  0
    2.4721    0.1971   -1.2039 C   0  0  0  0  0  0  0  0  0  0  0  0
   -5.7432    0.2396    2.1005 O   0  0  0  0  0  0  0  0  0  0  0  0
   -4.4808    1.4875   -0.4612 C   0  0  0  0  0  0  0  0  0  0  0  0
   -3.2721   -0.5320   -1.2789 C   0  0  0  0  0  0  0  0  0  0  0  0
    3.9375   -0.0525   -0.9478 C   0  0  0  0  0  0  0  0  0  0  0  0
    4.4485   -1.3576   -0.9180 C   0  0  0  0  0  0  0  0  0  0  0  0
    4.8039    1.0227   -0.7029 C   0  0  0  0  0  0  0  0  0  0  0  0
    6.1578    0.7984   -0.4466 C   0  0  0  0  0  0  0  0  0  0  0  0
    5.8040   -1.5795   -0.6615 C   0  0  0  0  0  0  0  0  0  0  0  0
    6.6577   -0.5025   -0.4283 C   0  0  0  0  0  0  0  0  0  0  0  0
    1.3906    0.9307    1.1264 C   0  0  0  0  0  0  0  0  0  0  0  0
    2.4679    0.1527    0.4542 C   0  0  0  0  0  0  0  0  0  0  0  0
    1.5351    2.0729    1.5316 O   0  0  0  0  0  0  0  0  0  0  0  0
    3.7097    0.7689    0.2584 C   0  0  0  0  0  0  0  0  0  0  0  0
    2.2755   -1.1549   -0.0076 C   0  0  0  0  0  0  0  0  0  0  0  0
    0.2533    0.1990    1.2088 O   0  0  0  0  0  0  0  0  0  0  0  0
    4.5749   -1.2409   -0.7991 C   0  0  0  0  0  0  0  0  0  0  0  0
   -2.6008    1.1237   -0.0820 N   0  0  0  0  0  0  0  0  0  0  0  0
    5.5669   -1.8760   -1.5505 N   0  0  0  0  0  0  0  0  0  0  0  0
    4.7452    0.0817   -0.3843 C   0  0  0  0  0  0  0  0  0  0  0  0
    3.3187   -1.8354   -0.6462 C   0  0  0  0  0  0  0  0  0  0  0  0
   -0.8703    0.8612    1.8159 C   0  0  0  0  0  0  0  0  0  0  0  0
   -1.6149    1.7574    0.8128 C   0  0  0  0  0  0  0  0  0  0  0  0
   -3.8009    0.6536    0.6092 C   0  0  0  0  0  0  0  0  0  0  0  0
   -2.0242    0.2150   -1.0771 C   0  0  0  0  0  0  0  0  0  0  0  0
   -4.9816    0.4554   -0.3358 C   0  0  0  0  0  0  0  0  0  0  0  0
   -1.9243   -1.2634   -0.7100 C   0  0  0  0  0  0  0  0  0  0  0  0
   -0.7778   -0.1297    0.0000 H   0  0  0  0  0  0  0  0  0  0  0  0
    0.7416   -0.2671    0.0000 H   0  0  0  0  0  0  0  0  0  0  0  0
   -1.1119    1.2868    2.3957 H   0  0  0  0  0  0  0  0  0  0  0  0
    0.4026   -0.6779    2.3829 H   0  0  0  0  0  0  0  0  0  0  0  0
   -4.0190   -1.2524    1.0921 H   0  0  0  0  0  0  0  0  0  0  0  0
    0.5676   -1.3335   -0.4111 H   0  0  0  0  0  0  0  0  0  0  0  0
    2.0612   -0.6153   -1.8171 H   0  0  0  0  0  0  0  0  0  0  0  0
    2.3410    1.1111   -1.7974 H   0  0  0  0  0  0  0  0  0  0  0  0
   -6.1660    0.7713    2.8087 H   0  0  0  0  0  0  0  0  0  0  0  0
   -4.5517    2.2926    0.2786 H   0  0  0  0  0  0  0  0  0  0  0  0
   -5.4591    0.9967   -0.5174 H   0  0  0  0  0  0  0  0  0  0  0  0
   -4.3043    1.9586   -1.4354 H   0  0  0  0  0  0  0  0  0  0  0  0
   -2.4736   -1.2665   -1.1286 H   0  0  0  0  0  0  0  0  0  0  0  0
   -4.2099   -1.0899   -1.3907 H   0  0  0  0  0  0  0  0  0  0  0  0
   -3.0798   -0.0294   -2.2347 H   0  0  0  0  0  0  0  0  0  0  0  0
    3.7985   -2.2119   -1.0886 H   0  0  0  0  0  0  0  0  0  0  0  0
    4.4222    2.0427   -0.6955 H   0  0  0  0  0  0  0  0  0  0  0  0
    6.8194    1.6395   -0.2536 H   0  0  0  0  0  0  0  0  0  0  0  0
    6.1924   -2.5948   -0.6372 H   0  0  0  0  0  0  0  0  0  0  0  0
    7.7112   -0.6765   -0.2234 H   0  0  0  0  0  0  0  0  0  0  0  0
    3.8742    1.7939    0.5867 H   0  0  0  0  0  0  0  0  0  0  0  0
    1.3170   -1.6555    0.1090 H   0  0  0  0  0  0  0  0  0  0  0  0
    5.5032   -2.8876   -1.5598 H   0  0  0  0  0  0  0  0  0  0  0  0
    6.5093   -1.5482   -1.3628 H   0  0  0  0  0  0  0  0  0  0  0  0
    5.6873    0.5943   -0.5624 H   0  0  0  0  0  0  0  0  0  0  0  0
    3.1388   -2.8374   -1.0273 H   0  0  0  0  0  0  0  0  0  0  0  0
   -0.5325    1.4557    2.6739 H   0  0  0  0  0  0  0  0  0  0  0  0
   -1.5277    0.0883    2.2270 H   0  0  0  0  0  0  0  0  0  0  0  0
   -0.8923    2.2994    0.1916 H   0  0  0  0  0  0  0  0  0  0  0  0
   -2.1415    2.5329    1.3845 H   0  0  0  0  0  0  0  0  0  0  0  0
   -3.6131   -0.2680    1.1704 H   0  0  0  0  0  0  0  0  0  0  0  0
   -4.1139    1.4035    1.3463 H   0  0  0  0  0  0  0  0  0  0  0  0
   -1.0335    0.5750   -1.3817 H   0  0  0  0  0  0  0  0  0  0  0  0
   -2.6316    0.2885   -1.9876 H   0  0  0  0  0  0  0  0  0  0  0  0
   -4.7975   -0.3379   -1.0675 H   0  0  0  0  0  0  0  0  0  0  0  0
   -5.8744    0.1769    0.2342 H   0  0  0  0  0  0  0  0  0  0  0  0
   -5.2077    1.3791   -0.8800 H   0  0  0  0  0  0  0  0  0  0  0  0
   -1.3992   -1.8047   -1.5055 H   0  0  0  0  0  0  0  0  0  0  0  0
   -2.9120   -1.7229   -0.6061 H   0  0  0  0  0  0  0  0  0  0  0  0
   -1.3736   -1.4270    0.2163 H   0  0  0  0  0  0  0  0  0  0  0  0
  3  2  1  0
  4  2  1  0
  5  4  1  0
  6  2  1  0
  3  7  1  0
  8  6  1  0
  5  9  1  0
  6 10  1  0
 11  9  1  0
 12  4  2  0
 13 10  2  0
 14 11  2  0
 15 11  1  0
 16 10  1  0
 17  8  1  0
 18  8  1  0
 19 15  1  0
 20 19  2  0
 21 19  1  0
 22 21  2  0
 23 20  1  0
 24 22  1  0
  7  8  1  0
  5  3  1  0
 24 23  2  0
 26 25  1  0
 27 25  2  0
 28 26  2  0
 29 26  1  0
 30 25  1  0
 31 35  1  0
 32 37  1  0
 33 31  1  0
 34 28  1  0
 35 29  2  0
 36 30  1  0
 37 36  1  0
 38 32  1  0
 39 32  1  0
 40 38  1  0
 41 39  1  0
 31 34  2  0
  1 42  1  0
  1 43  1  0
  3 44  1  1
  5 45  1  1
  6 46  1  6
  9 47  1  0
 15 48  1  0
 15 49  1  0
 16 50  1  0
 17 51  1  0
 17 52  1  0
 17 53  1  0
 18 54  1  0
 18 55  1  0
 18 56  1  0
 20 57  1  0
 21 58  1  0
 22 59  1  0
 23 60  1  0
 24 61  1  0
 28 62  1  0
 29 63  1  0
 33 64  1  0
 33 65  1  0
 34 66  1  0
 35 67  1  0
 36 68  1  0
 36 69  1  0
 37 70  1  0
 37 71  1  0
 38 72  1  0
 38 73  1  0
 39 74  1  0
 39 75  1  0
 40 76  1  0
 40 77  1  0
 40 78  1  0
 41 79  1  0
 41 80  1  0
 41 81  1  0
M  END
$$$$
