
     RDKit          3D

 49 50  0  0  0  0  0  0  0  0999 V2000
   44.5241    3.1159    9.1793 C   0  0  1  0  0  0  0  0  0  0  0  0
   45.0785    3.7322    7.9146 C   0  0  0  0  0  0  0  0  0  0  0  0
   45.8975    2.7317    8.6690 C   0  0  2  0  0  0  0  0  0  0  0  0
   44.3877    3.9508   10.4310 C   0  0  0  0  0  0  0  0  0  0  0  0
   46.1151    1.3986    8.1064 N   0  0  0  0  0  0  0  0  0  0  0  0
   43.6434    5.1425   10.4388 C   0  0  0  0  0  0  0  0  0  0  0  0
   44.9719    3.5472   11.6422 C   0  0  0  0  0  0  0  0  0  0  0  0
   44.8366    4.3071   12.8071 C   0  0  0  0  0  0  0  0  0  0  0  0
   43.5015    5.9067   11.6004 C   0  0  0  0  0  0  0  0  0  0  0  0
   44.1012    5.4888   12.7849 C   0  0  0  0  0  0  0  0  0  0  0  0
   44.3737    3.6622   10.0342 S   0  0  0  0  0  0  0  0  0  0  0  0
   43.3647    4.5273    9.4781 O   0  0  0  0  0  0  0  0  0  0  0  0
   44.1363    2.2934   10.4166 O   0  0  0  0  0  0  0  0  0  0  0  0
   45.6300    3.6435    9.0361 O   0  0  0  0  0  0  0  0  0  0  0  0
   44.9930    4.4388   11.2939 O   0  0  0  0  0  0  0  0  0  0  0  0
   44.0212    4.4880   10.7435 C   0  0  2  0  0  0  0  0  0  0  0  0
   44.7036    5.5099   11.6230 C   0  0  0  0  0  0  0  0  0  0  0  0
   44.3316    4.1770   12.1936 C   0  0  1  0  0  0  0  0  0  0  0  0
   44.7886    3.7859    9.6478 C   0  0  0  0  0  0  0  0  0  0  0  0
   43.2541    4.1000   13.1806 N   0  0  0  0  0  0  0  0  0  0  0  0
   44.7563    2.3872    9.5218 C   0  0  0  0  0  0  0  0  0  0  0  0
   45.5324    4.5029    8.6950 C   0  0  0  0  0  0  0  0  0  0  0  0
   46.2291    3.8524    7.6729 C   0  0  0  0  0  0  0  0  0  0  0  0
   45.4491    1.7306    8.5012 C   0  0  0  0  0  0  0  0  0  0  0  0
   46.1881    2.4646    7.5778 C   0  0  0  0  0  0  0  0  0  0  0  0
   43.7327    2.3821    9.0412 H   0  0  0  0  0  0  0  0  0  0  0  0
   45.4063    4.7656    7.9381 H   0  0  0  0  0  0  0  0  0  0  0  0
   44.6242    3.4424    6.9741 H   0  0  0  0  0  0  0  0  0  0  0  0
   46.7542    3.1228    9.2154 H   0  0  0  0  0  0  0  0  0  0  0  0
   45.3134    1.0839    7.5628 H   0  0  0  0  0  0  0  0  0  0  0  0
   46.9070    1.4044    7.4649 H   0  0  0  0  0  0  0  0  0  0  0  0
   43.1651    5.4811    9.5231 H   0  0  0  0  0  0  0  0  0  0  0  0
   45.5426    2.6211   11.6775 H   0  0  0  0  0  0  0  0  0  0  0  0
   45.3016    3.9712   13.7300 H   0  0  0  0  0  0  0  0  0  0  0  0
   42.9209    6.8245   11.5778 H   0  0  0  0  0  0  0  0  0  0  0  0
   43.9922    6.0798   13.6903 H   0  0  0  0  0  0  0  0  0  0  0  0
   46.1798    2.8702    9.2785 H   0  0  0  0  0  0  0  0  0  0  0  0
   44.8953    5.3981   11.1188 H   0  0  0  0  0  0  0  0  0  0  0  0
   42.9841    4.7024   10.4982 H   0  0  0  0  0  0  0  0  0  0  0  0
   45.7585    5.7083   11.4816 H   0  0  0  0  0  0  0  0  0  0  0  0
   44.1347    6.3809   11.9262 H   0  0  0  0  0  0  0  0  0  0  0  0
   45.1674    3.5119   12.4009 H   0  0  0  0  0  0  0  0  0  0  0  0
   42.4204    4.6011   12.8707 H   0  0  0  0  0  0  0  0  0  0  0  0
   42.9665    3.1318   13.3220 H   0  0  0  0  0  0  0  0  0  0  0  0
   44.1796    1.7981   10.2329 H   0  0  0  0  0  0  0  0  0  0  0  0
   45.5697    5.5886    8.7496 H   0  0  0  0  0  0  0  0  0  0  0  0
   46.8005    4.4315    6.9513 H   0  0  0  0  0  0  0  0  0  0  0  0
   45.4084    0.6470    8.4286 H   0  0  0  0  0  0  0  0  0  0  0  0
   46.7283    1.9569    6.7834 H   0  0  0  0  0  0  0  0  0  0  0  0
  2  1  1  0
  3  1  1  0
  1  4  1  0
  3  5  1  0
  6  4  2  0
  7  4  1  0
  8  7  2  0
  9  6  1  0
 10  9  2  0
  3  2  1  0
  8 10  1  0
 12 11  2  0
 13 11  2  0
 14 11  1  0
 15 11  1  0
 17 16  1  0
 18 16  1  0
 16 19  1  0
 18 20  1  0
 21 19  2  0
 22 19  1  0
 23 22  2  0
 24 21  1  0
 25 24  2  0
 18 17  1  0
 23 25  1  0
  1 26  1  1
  2 27  1  0
  2 28  1  0
  3 29  1  6
  5 30  1  0
  5 31  1  0
  6 32  1  0
  7 33  1  0
  8 34  1  0
  9 35  1  0
 10 36  1  0
 14 37  1  0
 15 38  1  0
 16 39  1  1
 17 40  1  0
 17 41  1  0
 18 42  1  6
 20 43  1  0
 20 44  1  0
 21 45  1  0
 22 46  1  0
 23 47  1  0
 24 48  1  0
 25 49  1  0
M  END
> <Uni-Dock RESULT> 
ENERGY=   -7.929  LOWER_BOUND=    0.000  UPPER_BOUND=    0.000
INTER + INTRA:          -7.929
INTER:                  -7.929
INTRA:                   0.000
UNBOUND:                 0.000

$$$$

     RDKit          3D

 49 50  0  0  0  0  0  0  0  0999 V2000
   44.6370    4.4854   11.4772 C   0  0  1  0  0  0  0  0  0  0  0  0
   43.8630    5.7746   11.6371 C   0  0  0  0  0  0  0  0  0  0  0  0
   43.2473    4.4839   12.0795 C   0  0  2  0  0  0  0  0  0  0  0  0
   44.8663    3.9064   10.1008 C   0  0  0  0  0  0  0  0  0  0  0  0
   43.0761    4.2123   13.5071 N   0  0  0  0  0  0  0  0  0  0  0  0
   45.4945    4.6511    9.0883 C   0  0  0  0  0  0  0  0  0  0  0  0
   44.4904    2.5889    9.7936 C   0  0  0  0  0  0  0  0  0  0  0  0
   44.7136    2.0424    8.5271 C   0  0  0  0  0  0  0  0  0  0  0  0
   45.7233    4.1107    7.8199 C   0  0  0  0  0  0  0  0  0  0  0  0
   45.3298    2.8054    7.5392 C   0  0  0  0  0  0  0  0  0  0  0  0
   44.8522    4.0866   10.5571 S   0  0  0  0  0  0  0  0  0  0  0  0
   45.6945    5.1715   10.1220 O   0  0  0  0  0  0  0  0  0  0  0  0
   45.2614    3.0830   11.5065 O   0  0  0  0  0  0  0  0  0  0  0  0
   43.4790    4.7038   11.1122 O   0  0  0  0  0  0  0  0  0  0  0  0
   44.3421    3.3471    9.2280 O   0  0  0  0  0  0  0  0  0  0  0  0
   45.2219    3.9898    9.4785 C   0  0  2  0  0  0  0  0  0  0  0  0
   44.5759    3.6864    8.1465 C   0  0  0  0  0  0  0  0  0  0  0  0
   45.1403    2.5668    8.9643 C   0  0  1  0  0  0  0  0  0  0  0  0
   44.3793    4.4064   10.6613 C   0  0  0  0  0  0  0  0  0  0  0  0
   46.3442    1.8793    8.4964 N   0  0  0  0  0  0  0  0  0  0  0  0
   44.5198    3.7770   11.9092 C   0  0  0  0  0  0  0  0  0  0  0  0
   43.4516    5.4582   10.5695 C   0  0  0  0  0  0  0  0  0  0  0  0
   42.6841    5.8523   11.6690 C   0  0  0  0  0  0  0  0  0  0  0  0
   43.7570    4.1673   13.0130 C   0  0  0  0  0  0  0  0  0  0  0  0
   42.8365    5.2045   12.8911 C   0  0  0  0  0  0  0  0  0  0  0  0
   45.4651    4.3412   12.1680 H   0  0  0  0  0  0  0  0  0  0  0  0
   43.4498    6.2482   10.7533 H   0  0  0  0  0  0  0  0  0  0  0  0
   44.2098    6.4789   12.3846 H   0  0  0  0  0  0  0  0  0  0  0  0
   42.4409    4.0962   11.4592 H   0  0  0  0  0  0  0  0  0  0  0  0
   43.8218    4.6292   14.0617 H   0  0  0  0  0  0  0  0  0  0  0  0
   42.2073    4.6210   13.8489 H   0  0  0  0  0  0  0  0  0  0  0  0
   45.8118    5.6708    9.2922 H   0  0  0  0  0  0  0  0  0  0  0  0
   44.0154    1.9770   10.5581 H   0  0  0  0  0  0  0  0  0  0  0  0
   44.4101    1.0203    8.3171 H   0  0  0  0  0  0  0  0  0  0  0  0
   46.2105    4.7093    7.0555 H   0  0  0  0  0  0  0  0  0  0  0  0
   45.5070    2.3813    6.5545 H   0  0  0  0  0  0  0  0  0  0  0  0
   43.0389    4.0035   11.6367 H   0  0  0  0  0  0  0  0  0  0  0  0
   44.3285    4.0162    8.5119 H   0  0  0  0  0  0  0  0  0  0  0  0
   46.1926    4.4762    9.4258 H   0  0  0  0  0  0  0  0  0  0  0  0
   43.4981    3.7374    8.0583 H   0  0  0  0  0  0  0  0  0  0  0  0
   45.1000    3.9870    7.2470 H   0  0  0  0  0  0  0  0  0  0  0  0
   44.4036    1.9065    9.4172 H   0  0  0  0  0  0  0  0  0  0  0  0
   47.0797    2.5379    8.2370 H   0  0  0  0  0  0  0  0  0  0  0  0
   46.7342    1.2963    9.2368 H   0  0  0  0  0  0  0  0  0  0  0  0
   45.2383    2.9671   12.0232 H   0  0  0  0  0  0  0  0  0  0  0  0
   43.3246    5.9807    9.6241 H   0  0  0  0  0  0  0  0  0  0  0  0
   41.9704    6.6667   11.5691 H   0  0  0  0  0  0  0  0  0  0  0  0
   43.8847    3.6615   13.9664 H   0  0  0  0  0  0  0  0  0  0  0  0
   42.2414    5.5099   13.7475 H   0  0  0  0  0  0  0  0  0  0  0  0
  2  1  1  0
  3  1  1  0
  1  4  1  0
  3  5  1  0
  6  4  2  0
  7  4  1  0
  8  7  2  0
  9  6  1  0
 10  9  2  0
  3  2  1  0
  8 10  1  0
 12 11  2  0
 13 11  2  0
 14 11  1  0
 15 11  1  0
 17 16  1  0
 18 16  1  0
 16 19  1  0
 18 20  1  0
 21 19  2  0
 22 19  1  0
 23 22  2  0
 24 21  1  0
 25 24  2  0
 18 17  1  0
 23 25  1  0
  1 26  1  1
  2 27  1  0
  2 28  1  0
  3 29  1  6
  5 30  1  0
  5 31  1  0
  6 32  1  0
  7 33  1  0
  8 34  1  0
  9 35  1  0
 10 36  1  0
 14 37  1  0
 15 38  1  0
 16 39  1  1
 17 40  1  0
 17 41  1  0
 18 42  1  6
 20 43  1  0
 20 44  1  0
 21 45  1  0
 22 46  1  0
 23 47  1  0
 24 48  1  0
 25 49  1  0
M  END
> <Uni-Dock RESULT> 
ENERGY=   -7.527  LOWER_BOUND=    0.880  UPPER_BOUND=    4.043
INTER + INTRA:          -7.527
INTER:                  -7.527
INTRA:                   0.000
UNBOUND:                 0.000

$$$$

     RDKit          3D

 49 50  0  0  0  0  0  0  0  0999 V2000
   44.3311    3.3668    9.2428 C   0  0  1  0  0  0  0  0  0  0  0  0
   44.3265    2.9483   10.6958 C   0  0  0  0  0  0  0  0  0  0  0  0
   44.6284    4.3700   10.3379 C   0  0  2  0  0  0  0  0  0  0  0  0
   45.4355    2.8991    8.3242 C   0  0  0  0  0  0  0  0  0  0  0  0
   43.6550    5.4188   10.6441 N   0  0  0  0  0  0  0  0  0  0  0  0
   45.7105    1.5327    8.1461 C   0  0  0  0  0  0  0  0  0  0  0  0
   46.2054    3.8133    7.5875 C   0  0  0  0  0  0  0  0  0  0  0  0
   47.2182    3.3864    6.7245 C   0  0  0  0  0  0  0  0  0  0  0  0
   46.7201    1.0979    7.2831 C   0  0  0  0  0  0  0  0  0  0  0  0
   47.4759    2.0268    6.5737 C   0  0  0  0  0  0  0  0  0  0  0  0
   45.0376    3.0322    8.5788 S   0  0  0  0  0  0  0  0  0  0  0  0
   44.6529    1.6453    8.6441 O   0  0  0  0  0  0  0  0  0  0  0  0
   44.2959    4.0386    7.8625 O   0  0  0  0  0  0  0  0  0  0  0  0
   45.2147    3.5789   10.0770 O   0  0  0  0  0  0  0  0  0  0  0  0
   46.5555    3.0580    8.0604 O   0  0  0  0  0  0  0  0  0  0  0  0
   45.7113    2.3298    7.9771 C   0  0  2  0  0  0  0  0  0  0  0  0
   47.2027    2.1219    7.8502 C   0  0  0  0  0  0  0  0  0  0  0  0
   46.5069    3.0604    6.9145 C   0  0  1  0  0  0  0  0  0  0  0  0
   45.1420    3.0997    9.1457 C   0  0  0  0  0  0  0  0  0  0  0  0
   46.3718    2.6914    5.5050 N   0  0  0  0  0  0  0  0  0  0  0  0
   44.2232    4.1437    8.9476 C   0  0  0  0  0  0  0  0  0  0  0  0
   45.4800    2.7801   10.4719 C   0  0  0  0  0  0  0  0  0  0  0  0
   44.9403    3.4835   11.5523 C   0  0  0  0  0  0  0  0  0  0  0  0
   43.6784    4.8498   10.0234 C   0  0  0  0  0  0  0  0  0  0  0  0
   44.0399    4.5203   11.3267 C   0  0  0  0  0  0  0  0  0  0  0  0
   43.3548    3.4419    8.7683 H   0  0  0  0  0  0  0  0  0  0  0  0
   45.1454    2.3418   11.0667 H   0  0  0  0  0  0  0  0  0  0  0  0
   43.3701    2.7078   11.1459 H   0  0  0  0  0  0  0  0  0  0  0  0
   45.6642    4.6863   10.4495 H   0  0  0  0  0  0  0  0  0  0  0  0
   42.6983    5.0760   10.5762 H   0  0  0  0  0  0  0  0  0  0  0  0
   43.7703    5.7471   11.6021 H   0  0  0  0  0  0  0  0  0  0  0  0
   45.1267    0.7939    8.6895 H   0  0  0  0  0  0  0  0  0  0  0  0
   46.0100    4.8792    7.6881 H   0  0  0  0  0  0  0  0  0  0  0  0
   47.7996    4.1169    6.1685 H   0  0  0  0  0  0  0  0  0  0  0  0
   46.9118    0.0352    7.1650 H   0  0  0  0  0  0  0  0  0  0  0  0
   48.2611    1.6925    5.9009 H   0  0  0  0  0  0  0  0  0  0  0  0
   45.2117    4.5571   10.0296 H   0  0  0  0  0  0  0  0  0  0  0  0
   46.9713    2.2161    8.3412 H   0  0  0  0  0  0  0  0  0  0  0  0
   45.0948    1.4986    7.6444 H   0  0  0  0  0  0  0  0  0  0  0  0
   47.8619    2.5607    8.5884 H   0  0  0  0  0  0  0  0  0  0  0  0
   47.5527    1.1710    7.4660 H   0  0  0  0  0  0  0  0  0  0  0  0
   46.7167    4.1158    7.0755 H   0  0  0  0  0  0  0  0  0  0  0  0
   46.0094    1.7435    5.3949 H   0  0  0  0  0  0  0  0  0  0  0  0
   45.7059    3.3055    5.0363 H   0  0  0  0  0  0  0  0  0  0  0  0
   43.9262    4.4114    7.9351 H   0  0  0  0  0  0  0  0  0  0  0  0
   46.1765    1.9679   10.6673 H   0  0  0  0  0  0  0  0  0  0  0  0
   45.2224    3.2181   12.5685 H   0  0  0  0  0  0  0  0  0  0  0  0
   42.9712    5.6546    9.8411 H   0  0  0  0  0  0  0  0  0  0  0  0
   43.6184    5.0679   12.1652 H   0  0  0  0  0  0  0  0  0  0  0  0
  2  1  1  0
  3  1  1  0
  1  4  1  0
  3  5  1  0
  6  4  2  0
  7  4  1  0
  8  7  2  0
  9  6  1  0
 10  9  2  0
  3  2  1  0
  8 10  1  0
 12 11  2  0
 13 11  2  0
 14 11  1  0
 15 11  1  0
 17 16  1  0
 18 16  1  0
 16 19  1  0
 18 20  1  0
 21 19  2  0
 22 19  1  0
 23 22  2  0
 24 21  1  0
 25 24  2  0
 18 17  1  0
 23 25  1  0
  1 26  1  1
  2 27  1  0
  2 28  1  0
  3 29  1  6
  5 30  1  0
  5 31  1  0
  6 32  1  0
  7 33  1  0
  8 34  1  0
  9 35  1  0
 10 36  1  0
 14 37  1  0
 15 38  1  0
 16 39  1  1
 17 40  1  0
 17 41  1  0
 18 42  1  6
 20 43  1  0
 20 44  1  0
 21 45  1  0
 22 46  1  0
 23 47  1  0
 24 48  1  0
 25 49  1  0
M  END
> <Uni-Dock RESULT> 
ENERGY=   -7.090  LOWER_BOUND=    1.360  UPPER_BOUND=    4.499
INTER + INTRA:          -7.090
INTER:                  -7.090
INTRA:                   0.000
UNBOUND:                 0.000

$$$$

     RDKit          3D

 49 50  0  0  0  0  0  0  0  0999 V2000
   43.6342    4.0444   10.9772 C   0  0  1  0  0  0  0  0  0  0  0  0
   43.9033    3.5549   12.3824 C   0  0  0  0  0  0  0  0  0  0  0  0
   44.2093    4.9757   12.0241 C   0  0  2  0  0  0  0  0  0  0  0  0
   44.4965    3.5679    9.8319 C   0  0  0  0  0  0  0  0  0  0  0  0
   43.3837    6.0556   12.5659 N   0  0  0  0  0  0  0  0  0  0  0  0
   44.6472    2.2000    9.5485 C   0  0  0  0  0  0  0  0  0  0  0  0
   45.1517    4.4778    8.9868 C   0  0  0  0  0  0  0  0  0  0  0  0
   45.9384    4.0439    7.9164 C   0  0  0  0  0  0  0  0  0  0  0  0
   45.4303    1.7584    8.4784 C   0  0  0  0  0  0  0  0  0  0  0  0
   46.0782    2.6822    7.6635 C   0  0  0  0  0  0  0  0  0  0  0  0
   44.1680    3.7081   10.1686 S   0  0  0  0  0  0  0  0  0  0  0  0
   43.7231    2.3408   10.2593 O   0  0  0  0  0  0  0  0  0  0  0  0
   43.3563    4.7849    9.6611 O   0  0  0  0  0  0  0  0  0  0  0  0
   44.6813    4.1701   11.6170 O   0  0  0  0  0  0  0  0  0  0  0  0
   45.5458    3.6832    9.3474 O   0  0  0  0  0  0  0  0  0  0  0  0
   44.6608    3.0035    9.4136 C   0  0  2  0  0  0  0  0  0  0  0  0
   46.0792    2.7273    8.9716 C   0  0  0  0  0  0  0  0  0  0  0  0
   45.2631    3.7450    8.2375 C   0  0  1  0  0  0  0  0  0  0  0  0
   44.3904    3.7420   10.7035 C   0  0  0  0  0  0  0  0  0  0  0  0
   44.8197    3.4539    6.8739 N   0  0  0  0  0  0  0  0  0  0  0  0
   43.5144    4.8394   10.7408 C   0  0  0  0  0  0  0  0  0  0  0  0
   44.9741    3.3402   11.9173 C   0  0  0  0  0  0  0  0  0  0  0  0
   44.7107    4.0153   13.1124 C   0  0  0  0  0  0  0  0  0  0  0  0
   43.2452    5.5177   11.9325 C   0  0  0  0  0  0  0  0  0  0  0  0
   43.8465    5.1060   13.1186 C   0  0  0  0  0  0  0  0  0  0  0  0
   42.5875    4.1920   10.7192 H   0  0  0  0  0  0  0  0  0  0  0  0
   44.7434    2.8903   12.5515 H   0  0  0  0  0  0  0  0  0  0  0  0
   43.0472    3.3407   13.0119 H   0  0  0  0  0  0  0  0  0  0  0  0
   45.2629    5.2336   11.9300 H   0  0  0  0  0  0  0  0  0  0  0  0
   42.4148    5.7651   12.6852 H   0  0  0  0  0  0  0  0  0  0  0  0
   43.7127    6.3296   13.4908 H   0  0  0  0  0  0  0  0  0  0  0  0
   44.1446    1.4654   10.1727 H   0  0  0  0  0  0  0  0  0  0  0  0
   45.0449    5.5459    9.1665 H   0  0  0  0  0  0  0  0  0  0  0  0
   46.4356    4.7709    7.2800 H   0  0  0  0  0  0  0  0  0  0  0  0
   45.5301    0.6946    8.2825 H   0  0  0  0  0  0  0  0  0  0  0  0
   46.6871    2.3427    6.8298 H   0  0  0  0  0  0  0  0  0  0  0  0
   44.7269    5.1483   11.6087 H   0  0  0  0  0  0  0  0  0  0  0  0
   45.9596    2.8086    9.5032 H   0  0  0  0  0  0  0  0  0  0  0  0
   43.9407    2.2219    9.1848 H   0  0  0  0  0  0  0  0  0  0  0  0
   46.9009    3.0952    9.5728 H   0  0  0  0  0  0  0  0  0  0  0  0
   46.2856    1.7804    8.4869 H   0  0  0  0  0  0  0  0  0  0  0  0
   45.5640    4.7793    8.3917 H   0  0  0  0  0  0  0  0  0  0  0  0
   44.3866    2.5320    6.8053 H   0  0  0  0  0  0  0  0  0  0  0  0
   44.1095    4.1232    6.5776 H   0  0  0  0  0  0  0  0  0  0  0  0
   43.0322    5.1718    9.8231 H   0  0  0  0  0  0  0  0  0  0  0  0
   45.6463    2.4853   11.9325 H   0  0  0  0  0  0  0  0  0  0  0  0
   45.1792    3.6859   14.0368 H   0  0  0  0  0  0  0  0  0  0  0  0
   42.5648    6.3651   11.9321 H   0  0  0  0  0  0  0  0  0  0  0  0
   43.6396    5.6317   14.0468 H   0  0  0  0  0  0  0  0  0  0  0  0
  2  1  1  0
  3  1  1  0
  1  4  1  0
  3  5  1  0
  6  4  2  0
  7  4  1  0
  8  7  2  0
  9  6  1  0
 10  9  2  0
  3  2  1  0
  8 10  1  0
 12 11  2  0
 13 11  2  0
 14 11  1  0
 15 11  1  0
 17 16  1  0
 18 16  1  0
 16 19  1  0
 18 20  1  0
 21 19  2  0
 22 19  1  0
 23 22  2  0
 24 21  1  0
 25 24  2  0
 18 17  1  0
 23 25  1  0
  1 26  1  1
  2 27  1  0
  2 28  1  0
  3 29  1  6
  5 30  1  0
  5 31  1  0
  6 32  1  0
  7 33  1  0
  8 34  1  0
  9 35  1  0
 10 36  1  0
 14 37  1  0
 15 38  1  0
 16 39  1  1
 17 40  1  0
 17 41  1  0
 18 42  1  6
 20 43  1  0
 20 44  1  0
 21 45  1  0
 22 46  1  0
 23 47  1  0
 24 48  1  0
 25 49  1  0
M  END
> <Uni-Dock RESULT> 
ENERGY=   -6.640  LOWER_BOUND=    0.810  UPPER_BOUND=    4.203
INTER + INTRA:          -6.640
INTER:                  -6.640
INTRA:                   0.000
UNBOUND:                 0.000

$$$$

     RDKit          3D

 49 50  0  0  0  0  0  0  0  0999 V2000
   45.4557    3.8734    9.6914 C   0  0  1  0  0  0  0  0  0  0  0  0
   45.4463    2.4269    9.2506 C   0  0  0  0  0  0  0  0  0  0  0  0
   44.9229    3.4833    8.3283 C   0  0  2  0  0  0  0  0  0  0  0  0
   44.5069    4.3420   10.7695 C   0  0  0  0  0  0  0  0  0  0  0  0
   45.6783    3.8374    7.1261 N   0  0  0  0  0  0  0  0  0  0  0  0
   44.4856    3.7397   12.0388 C   0  0  0  0  0  0  0  0  0  0  0  0
   43.6347    5.4208   10.5528 C   0  0  0  0  0  0  0  0  0  0  0  0
   42.7655    5.8689   11.5509 C   0  0  0  0  0  0  0  0  0  0  0  0
   43.6208    4.1837   13.0429 C   0  0  0  0  0  0  0  0  0  0  0  0
   42.7584    5.2482   12.7969 C   0  0  0  0  0  0  0  0  0  0  0  0
   44.8595    4.2181   10.4514 S   0  0  0  0  0  0  0  0  0  0  0  0
   45.4756    3.4300   11.4882 O   0  0  0  0  0  0  0  0  0  0  0  0
   45.4557    5.3975    9.8774 O   0  0  0  0  0  0  0  0  0  0  0  0
   44.5003    3.2479    9.2247 O   0  0  0  0  0  0  0  0  0  0  0  0
   43.3941    4.5992   10.9815 O   0  0  0  0  0  0  0  0  0  0  0  0
   44.3559    4.3129   11.4745 C   0  0  2  0  0  0  0  0  0  0  0  0
   42.9339    4.2400   11.9808 C   0  0  0  0  0  0  0  0  0  0  0  0
   43.5101    5.5649   11.5893 C   0  0  1  0  0  0  0  0  0  0  0  0
   44.7112    3.7739   10.1086 C   0  0  0  0  0  0  0  0  0  0  0  0
   43.7916    6.5548   12.6294 N   0  0  0  0  0  0  0  0  0  0  0  0
   45.4438    4.5464    9.1923 C   0  0  0  0  0  0  0  0  0  0  0  0
   44.3553    2.4721    9.7162 C   0  0  0  0  0  0  0  0  0  0  0  0
   44.6984    1.9698    8.4579 C   0  0  0  0  0  0  0  0  0  0  0  0
   45.7917    4.0497    7.9334 C   0  0  0  0  0  0  0  0  0  0  0  0
   45.4159    2.7607    7.5657 C   0  0  0  0  0  0  0  0  0  0  0  0
   46.4305    4.3563    9.7110 H   0  0  0  0  0  0  0  0  0  0  0  0
   44.7250    1.7504    9.6959 H   0  0  0  0  0  0  0  0  0  0  0  0
   46.4012    1.9618    9.0345 H   0  0  0  0  0  0  0  0  0  0  0  0
   43.8430    3.5142    8.1931 H   0  0  0  0  0  0  0  0  0  0  0  0
   46.6824    3.7519    7.2736 H   0  0  0  0  0  0  0  0  0  0  0  0
   45.4504    3.2055    6.3596 H   0  0  0  0  0  0  0  0  0  0  0  0
   45.1557    2.9098   12.2489 H   0  0  0  0  0  0  0  0  0  0  0  0
   43.6348    5.9219    9.5866 H   0  0  0  0  0  0  0  0  0  0  0  0
   42.0998    6.7050   11.3541 H   0  0  0  0  0  0  0  0  0  0  0  0
   43.6249    3.6992   14.0152 H   0  0  0  0  0  0  0  0  0  0  0  0
   42.0853    5.5970   13.5755 H   0  0  0  0  0  0  0  0  0  0  0  0
   44.3354    3.8172    8.4451 H   0  0  0  0  0  0  0  0  0  0  0  0
   43.1155    3.8891   11.5969 H   0  0  0  0  0  0  0  0  0  0  0  0
   45.1267    4.1702   12.2275 H   0  0  0  0  0  0  0  0  0  0  0  0
   42.1653    3.8280   11.3394 H   0  0  0  0  0  0  0  0  0  0  0  0
   42.7789    4.0324   13.0330 H   0  0  0  0  0  0  0  0  0  0  0  0
   43.1101    5.9914   10.6717 H   0  0  0  0  0  0  0  0  0  0  0  0
   44.3198    6.1506   13.4038 H   0  0  0  0  0  0  0  0  0  0  0  0
   44.3669    7.3107   12.2581 H   0  0  0  0  0  0  0  0  0  0  0  0
   45.7496    5.5550    9.4654 H   0  0  0  0  0  0  0  0  0  0  0  0
   43.8007    1.8372   10.4034 H   0  0  0  0  0  0  0  0  0  0  0  0
   44.4065    0.9602    8.1782 H   0  0  0  0  0  0  0  0  0  0  0  0
   46.3573    4.6701    7.2432 H   0  0  0  0  0  0  0  0  0  0  0  0
   45.6844    2.3719    6.5873 H   0  0  0  0  0  0  0  0  0  0  0  0
  2  1  1  0
  3  1  1  0
  1  4  1  0
  3  5  1  0
  6  4  2  0
  7  4  1  0
  8  7  2  0
  9  6  1  0
 10  9  2  0
  3  2  1  0
  8 10  1  0
 12 11  2  0
 13 11  2  0
 14 11  1  0
 15 11  1  0
 17 16  1  0
 18 16  1  0
 16 19  1  0
 18 20  1  0
 21 19  2  0
 22 19  1  0
 23 22  2  0
 24 21  1  0
 25 24  2  0
 18 17  1  0
 23 25  1  0
  1 26  1  1
  2 27  1  0
  2 28  1  0
  3 29  1  6
  5 30  1  0
  5 31  1  0
  6 32  1  0
  7 33  1  0
  8 34  1  0
  9 35  1  0
 10 36  1  0
 14 37  1  0
 15 38  1  0
 16 39  1  1
 17 40  1  0
 17 41  1  0
 18 42  1  6
 20 43  1  0
 20 44  1  0
 21 45  1  0
 22 46  1  0
 23 47  1  0
 24 48  1  0
 25 49  1  0
M  END
> <Uni-Dock RESULT> 
ENERGY=   -6.546  LOWER_BOUND=    1.149  UPPER_BOUND=    2.075
INTER + INTRA:          -6.546
INTER:                  -6.546
INTRA:                   0.000
UNBOUND:                 0.000

$$$$

     RDKit          3D

 49 50  0  0  0  0  0  0  0  0999 V2000
   44.6641    6.1703   11.5468 C   0  0  1  0  0  0  0  0  0  0  0  0
   44.5476    4.7312   11.9964 C   0  0  0  0  0  0  0  0  0  0  0  0
   43.5069    5.7222   12.4153 C   0  0  2  0  0  0  0  0  0  0  0  0
   45.7431    7.0577   12.1218 C   0  0  0  0  0  0  0  0  0  0  0  0
   42.1607    5.6461   11.8468 N   0  0  0  0  0  0  0  0  0  0  0  0
   47.1010    6.7058   12.0409 C   0  0  0  0  0  0  0  0  0  0  0  0
   45.4297    8.2847   12.7281 C   0  0  0  0  0  0  0  0  0  0  0  0
   46.4244    9.1172   13.2482 C   0  0  0  0  0  0  0  0  0  0  0  0
   48.1016    7.5341   12.5565 C   0  0  0  0  0  0  0  0  0  0  0  0
   47.7616    8.7400   13.1629 C   0  0  0  0  0  0  0  0  0  0  0  0
   45.4111    6.7892   11.8797 S   0  0  0  0  0  0  0  0  0  0  0  0
   46.4919    6.0453   11.2845 O   0  0  0  0  0  0  0  0  0  0  0  0
   44.5191    7.6430   11.1370 O   0  0  0  0  0  0  0  0  0  0  0  0
   44.4843    5.7669   12.6986 O   0  0  0  0  0  0  0  0  0  0  0  0
   46.0538    7.6461   13.0738 O   0  0  0  0  0  0  0  0  0  0  0  0
   46.4523    7.1899   12.1342 C   0  0  2  0  0  0  0  0  0  0  0  0
   47.1624    7.6013   13.4031 C   0  0  0  0  0  0  0  0  0  0  0  0
   46.4187    8.6287   12.6081 C   0  0  1  0  0  0  0  0  0  0  0  0
   45.1959    6.3532   12.1964 C   0  0  0  0  0  0  0  0  0  0  0  0
   47.1721    9.6603   11.8946 N   0  0  0  0  0  0  0  0  0  0  0  0
   44.0402    6.7269   11.4910 C   0  0  0  0  0  0  0  0  0  0  0  0
   45.1454    5.1554   12.9301 C   0  0  0  0  0  0  0  0  0  0  0  0
   43.9870    4.3748   12.9739 C   0  0  0  0  0  0  0  0  0  0  0  0
   42.8792    5.9501   11.5289 C   0  0  0  0  0  0  0  0  0  0  0  0
   42.8528    4.7742   12.2736 C   0  0  0  0  0  0  0  0  0  0  0  0
   44.4394    6.3589   10.4990 H   0  0  0  0  0  0  0  0  0  0  0  0
   45.2262    4.3666   12.7598 H   0  0  0  0  0  0  0  0  0  0  0  0
   44.3000    3.9893   11.2460 H   0  0  0  0  0  0  0  0  0  0  0  0
   43.5256    6.0296   13.4596 H   0  0  0  0  0  0  0  0  0  0  0  0
   42.1765    5.3103   10.8853 H   0  0  0  0  0  0  0  0  0  0  0  0
   41.5876    4.9840   12.3681 H   0  0  0  0  0  0  0  0  0  0  0  0
   47.3840    5.7693   11.5667 H   0  0  0  0  0  0  0  0  0  0  0  0
   44.3894    8.5974   12.7946 H   0  0  0  0  0  0  0  0  0  0  0  0
   46.1522   10.0604   13.7140 H   0  0  0  0  0  0  0  0  0  0  0  0
   49.1437    7.2370   12.4809 H   0  0  0  0  0  0  0  0  0  0  0  0
   48.5368    9.3873   13.5641 H   0  0  0  0  0  0  0  0  0  0  0  0
   43.6335    6.2211   12.8685 H   0  0  0  0  0  0  0  0  0  0  0  0
   46.8400    7.1548   13.3918 H   0  0  0  0  0  0  0  0  0  0  0  0
   47.0990    6.9659   11.2897 H   0  0  0  0  0  0  0  0  0  0  0  0
   46.7413    7.3186   14.3595 H   0  0  0  0  0  0  0  0  0  0  0  0
   48.2458    7.6238   13.3951 H   0  0  0  0  0  0  0  0  0  0  0  0
   45.4989    8.9903   13.0632 H   0  0  0  0  0  0  0  0  0  0  0  0
   47.9303    9.2601   11.3404 H   0  0  0  0  0  0  0  0  0  0  0  0
   46.5693   10.1530   11.2359 H   0  0  0  0  0  0  0  0  0  0  0  0
   44.0451    7.6412   10.9001 H   0  0  0  0  0  0  0  0  0  0  0  0
   46.0249    4.8240   13.4776 H   0  0  0  0  0  0  0  0  0  0  0  0
   43.9740    3.4545   13.5531 H   0  0  0  0  0  0  0  0  0  0  0  0
   41.9985    6.2642   10.9752 H   0  0  0  0  0  0  0  0  0  0  0  0
   41.9514    4.1683   12.3055 H   0  0  0  0  0  0  0  0  0  0  0  0
  2  1  1  0
  3  1  1  0
  1  4  1  0
  3  5  1  0
  6  4  2  0
  7  4  1  0
  8  7  2  0
  9  6  1  0
 10  9  2  0
  3  2  1  0
  8 10  1  0
 12 11  2  0
 13 11  2  0
 14 11  1  0
 15 11  1  0
 17 16  1  0
 18 16  1  0
 16 19  1  0
 18 20  1  0
 21 19  2  0
 22 19  1  0
 23 22  2  0
 24 21  1  0
 25 24  2  0
 18 17  1  0
 23 25  1  0
  1 26  1  1
  2 27  1  0
  2 28  1  0
  3 29  1  6
  5 30  1  0
  5 31  1  0
  6 32  1  0
  7 33  1  0
  8 34  1  0
  9 35  1  0
 10 36  1  0
 14 37  1  0
 15 38  1  0
 16 39  1  1
 17 40  1  0
 17 41  1  0
 18 42  1  6
 20 43  1  0
 20 44  1  0
 21 45  1  0
 22 46  1  0
 23 47  1  0
 24 48  1  0
 25 49  1  0
M  END
> <Uni-Dock RESULT> 
ENERGY=   -6.201  LOWER_BOUND=    3.298  UPPER_BOUND=    4.871
INTER + INTRA:          -6.201
INTER:                  -6.201
INTRA:                   0.000
UNBOUND:                 0.000

$$$$

     RDKit          3D

 49 50  0  0  0  0  0  0  0  0999 V2000
   44.4685    5.1596   12.6951 C   0  0  1  0  0  0  0  0  0  0  0  0
   43.5925    5.1915   11.4629 C   0  0  0  0  0  0  0  0  0  0  0  0
   44.4330    3.9843   11.7404 C   0  0  2  0  0  0  0  0  0  0  0  0
   45.6972    6.0351   12.7728 C   0  0  0  0  0  0  0  0  0  0  0  0
   43.7947    2.7339   12.1532 N   0  0  0  0  0  0  0  0  0  0  0  0
   45.6145    7.4288   12.6145 C   0  0  0  0  0  0  0  0  0  0  0  0
   46.9632    5.4904   13.0408 C   0  0  0  0  0  0  0  0  0  0  0  0
   48.1012    6.2966   13.1291 C   0  0  0  0  0  0  0  0  0  0  0  0
   46.7477    8.2420   12.7037 C   0  0  0  0  0  0  0  0  0  0  0  0
   47.9925    7.6739   12.9590 C   0  0  0  0  0  0  0  0  0  0  0  0
   45.2837    5.7725   12.8034 S   0  0  0  0  0  0  0  0  0  0  0  0
   44.5379    7.0051   12.8160 O   0  0  0  0  0  0  0  0  0  0  0  0
   45.3483    4.8614   13.9177 O   0  0  0  0  0  0  0  0  0  0  0  0
   44.8107    4.9081   11.5369 O   0  0  0  0  0  0  0  0  0  0  0  0
   46.7817    6.1530   12.3740 O   0  0  0  0  0  0  0  0  0  0  0  0
   45.9336    6.7136   12.8392 C   0  0  2  0  0  0  0  0  0  0  0  0
   47.1403    7.2132   12.0789 C   0  0  0  0  0  0  0  0  0  0  0  0
   47.3355    6.4300   13.3395 C   0  0  1  0  0  0  0  0  0  0  0  0
   45.0944    5.5848   12.2879 C   0  0  0  0  0  0  0  0  0  0  0  0
   47.8481    7.1107   14.5290 N   0  0  0  0  0  0  0  0  0  0  0  0
   44.7594    4.4756   13.0821 C   0  0  0  0  0  0  0  0  0  0  0  0
   44.5887    5.6165   10.9770 C   0  0  0  0  0  0  0  0  0  0  0  0
   43.7996    4.5784   10.4740 C   0  0  0  0  0  0  0  0  0  0  0  0
   43.9694    3.4352   12.5860 C   0  0  0  0  0  0  0  0  0  0  0  0
   43.4915    3.4863   11.2796 C   0  0  0  0  0  0  0  0  0  0  0  0
   43.9491    5.0307   13.6425 H   0  0  0  0  0  0  0  0  0  0  0  0
   43.8847    5.8232   10.6312 H   0  0  0  0  0  0  0  0  0  0  0  0
   42.5198    5.1339   11.6080 H   0  0  0  0  0  0  0  0  0  0  0  0
   45.3014    3.8429   11.0991 H   0  0  0  0  0  0  0  0  0  0  0  0
   42.9598    2.9038   12.7113 H   0  0  0  0  0  0  0  0  0  0  0  0
   43.4877    2.2018   11.3400 H   0  0  0  0  0  0  0  0  0  0  0  0
   44.6492    7.8891   12.4186 H   0  0  0  0  0  0  0  0  0  0  0  0
   47.0629    4.4162   13.1849 H   0  0  0  0  0  0  0  0  0  0  0  0
   49.0687    5.8470   13.3357 H   0  0  0  0  0  0  0  0  0  0  0  0
   46.6550    9.3168   12.5765 H   0  0  0  0  0  0  0  0  0  0  0  0
   48.8757    8.3030   13.0303 H   0  0  0  0  0  0  0  0  0  0  0  0
   45.1164    3.9895   11.6839 H   0  0  0  0  0  0  0  0  0  0  0  0
   46.7275    6.9582   11.8179 H   0  0  0  0  0  0  0  0  0  0  0  0
   45.3679    7.4759   13.3688 H   0  0  0  0  0  0  0  0  0  0  0  0
   47.4171    6.7297   11.1506 H   0  0  0  0  0  0  0  0  0  0  0  0
   47.3451    8.2772   12.0923 H   0  0  0  0  0  0  0  0  0  0  0  0
   47.7273    5.4240   13.2043 H   0  0  0  0  0  0  0  0  0  0  0  0
   47.3382    7.9741   14.7204 H   0  0  0  0  0  0  0  0  0  0  0  0
   47.7320    6.5241   15.3552 H   0  0  0  0  0  0  0  0  0  0  0  0
   45.1211    4.4218   14.1075 H   0  0  0  0  0  0  0  0  0  0  0  0
   44.8132    6.4657   10.3356 H   0  0  0  0  0  0  0  0  0  0  0  0
   43.4248    4.6264    9.4542 H   0  0  0  0  0  0  0  0  0  0  0  0
   43.7273    2.5878   13.2219 H   0  0  0  0  0  0  0  0  0  0  0  0
   42.8774    2.6786   10.8908 H   0  0  0  0  0  0  0  0  0  0  0  0
  2  1  1  0
  3  1  1  0
  1  4  1  0
  3  5  1  0
  6  4  2  0
  7  4  1  0
  8  7  2  0
  9  6  1  0
 10  9  2  0
  3  2  1  0
  8 10  1  0
 12 11  2  0
 13 11  2  0
 14 11  1  0
 15 11  1  0
 17 16  1  0
 18 16  1  0
 16 19  1  0
 18 20  1  0
 21 19  2  0
 22 19  1  0
 23 22  2  0
 24 21  1  0
 25 24  2  0
 18 17  1  0
 23 25  1  0
  1 26  1  1
  2 27  1  0
  2 28  1  0
  3 29  1  6
  5 30  1  0
  5 31  1  0
  6 32  1  0
  7 33  1  0
  8 34  1  0
  9 35  1  0
 10 36  1  0
 14 37  1  0
 15 38  1  0
 16 39  1  1
 17 40  1  0
 17 41  1  0
 18 42  1  6
 20 43  1  0
 20 44  1  0
 21 45  1  0
 22 46  1  0
 23 47  1  0
 24 48  1  0
 25 49  1  0
M  END
> <Uni-Dock RESULT> 
ENERGY=   -5.964  LOWER_BOUND=    2.527  UPPER_BOUND=    3.935
INTER + INTRA:          -5.964
INTER:                  -5.964
INTRA:                   0.000
UNBOUND:                 0.000

$$$$

     RDKit          3D

 49 50  0  0  0  0  0  0  0  0999 V2000
   46.4922    6.7659   12.3030 C   0  0  1  0  0  0  0  0  0  0  0  0
   46.3488    8.2359   11.9788 C   0  0  0  0  0  0  0  0  0  0  0  0
   46.4499    7.8013   13.4076 C   0  0  2  0  0  0  0  0  0  0  0  0
   45.3250    5.8288   12.0985 C   0  0  0  0  0  0  0  0  0  0  0  0
   47.6623    8.0953   14.1725 N   0  0  0  0  0  0  0  0  0  0  0  0
   44.6963    5.7039   10.8482 C   0  0  0  0  0  0  0  0  0  0  0  0
   44.8479    5.0218   13.1438 C   0  0  0  0  0  0  0  0  0  0  0  0
   43.7786    4.1418   12.9571 C   0  0  0  0  0  0  0  0  0  0  0  0
   43.6280    4.8243   10.6530 C   0  0  0  0  0  0  0  0  0  0  0  0
   43.1677    4.0444   11.7101 C   0  0  0  0  0  0  0  0  0  0  0  0
   45.7378    6.0919   12.1340 S   0  0  0  0  0  0  0  0  0  0  0  0
   45.7329    6.2359   10.7005 O   0  0  0  0  0  0  0  0  0  0  0  0
   46.7403    5.3583   12.8641 O   0  0  0  0  0  0  0  0  0  0  0  0
   45.6786    7.5553   12.7895 O   0  0  0  0  0  0  0  0  0  0  0  0
   44.2960    5.5156   12.5370 O   0  0  0  0  0  0  0  0  0  0  0  0
   44.9144    5.4983   11.6058 C   0  0  2  0  0  0  0  0  0  0  0  0
   43.4257    5.3246   11.7984 C   0  0  0  0  0  0  0  0  0  0  0  0
   44.3710    4.3735   12.4634 C   0  0  1  0  0  0  0  0  0  0  0  0
   45.6419    6.6506   12.2579 C   0  0  0  0  0  0  0  0  0  0  0  0
   44.4355    2.9888   11.9951 N   0  0  0  0  0  0  0  0  0  0  0  0
   46.8124    6.4394   13.0051 C   0  0  0  0  0  0  0  0  0  0  0  0
   45.1984    7.9765   12.1138 C   0  0  0  0  0  0  0  0  0  0  0  0
   45.8815    9.0428   12.7050 C   0  0  0  0  0  0  0  0  0  0  0  0
   47.5013    7.5012   13.5974 C   0  0  0  0  0  0  0  0  0  0  0  0
   47.0331    8.8037   13.4487 C   0  0  0  0  0  0  0  0  0  0  0  0
   47.4637    6.3258   12.0877 H   0  0  0  0  0  0  0  0  0  0  0  0
   45.3880    8.6032   11.6352 H   0  0  0  0  0  0  0  0  0  0  0  0
   47.1939    8.7327   11.5160 H   0  0  0  0  0  0  0  0  0  0  0  0
   45.5353    7.8588   13.9955 H   0  0  0  0  0  0  0  0  0  0  0  0
   48.4925    8.0797   13.5827 H   0  0  0  0  0  0  0  0  0  0  0  0
   47.6167    9.0320   14.5717 H   0  0  0  0  0  0  0  0  0  0  0  0
   45.0461    6.3027   10.0109 H   0  0  0  0  0  0  0  0  0  0  0  0
   45.3209    5.0803   14.1223 H   0  0  0  0  0  0  0  0  0  0  0  0
   43.4291    3.5309   13.7851 H   0  0  0  0  0  0  0  0  0  0  0  0
   43.1599    4.7484    9.6757 H   0  0  0  0  0  0  0  0  0  0  0  0
   42.3380    3.3585   11.5620 H   0  0  0  0  0  0  0  0  0  0  0  0
   45.9462    7.4628   13.7270 H   0  0  0  0  0  0  0  0  0  0  0  0
   43.6620    5.8192   11.8540 H   0  0  0  0  0  0  0  0  0  0  0  0
   45.2920    5.2280   10.6229 H   0  0  0  0  0  0  0  0  0  0  0  0
   42.8915    6.0161   12.4376 H   0  0  0  0  0  0  0  0  0  0  0  0
   42.8417    4.9718   10.9565 H   0  0  0  0  0  0  0  0  0  0  0  0
   44.4495    4.4774   13.5437 H   0  0  0  0  0  0  0  0  0  0  0  0
   44.5317    2.9365   10.9801 H   0  0  0  0  0  0  0  0  0  0  0  0
   45.2533    2.5177   12.3817 H   0  0  0  0  0  0  0  0  0  0  0  0
   47.1949    5.4275   13.1276 H   0  0  0  0  0  0  0  0  0  0  0  0
   44.3043    8.1828   11.5298 H   0  0  0  0  0  0  0  0  0  0  0  0
   45.5139   10.0587   12.5811 H   0  0  0  0  0  0  0  0  0  0  0  0
   48.4034    7.3088   14.1721 H   0  0  0  0  0  0  0  0  0  0  0  0
   47.5663    9.6314   13.9085 H   0  0  0  0  0  0  0  0  0  0  0  0
  2  1  1  0
  3  1  1  0
  1  4  1  0
  3  5  1  0
  6  4  2  0
  7  4  1  0
  8  7  2  0
  9  6  1  0
 10  9  2  0
  3  2  1  0
  8 10  1  0
 12 11  2  0
 13 11  2  0
 14 11  1  0
 15 11  1  0
 17 16  1  0
 18 16  1  0
 16 19  1  0
 18 20  1  0
 21 19  2  0
 22 19  1  0
 23 22  2  0
 24 21  1  0
 25 24  2  0
 18 17  1  0
 23 25  1  0
  1 26  1  1
  2 27  1  0
  2 28  1  0
  3 29  1  6
  5 30  1  0
  5 31  1  0
  6 32  1  0
  7 33  1  0
  8 34  1  0
  9 35  1  0
 10 36  1  0
 14 37  1  0
 15 38  1  0
 16 39  1  1
 17 40  1  0
 17 41  1  0
 18 42  1  6
 20 43  1  0
 20 44  1  0
 21 45  1  0
 22 46  1  0
 23 47  1  0
 24 48  1  0
 25 49  1  0
M  END
> <Uni-Dock RESULT> 
ENERGY=   -5.626  LOWER_BOUND=    2.709  UPPER_BOUND=    4.764
INTER + INTRA:          -5.626
INTER:                  -5.626
INTRA:                   0.000
UNBOUND:                 0.000

$$$$

     RDKit          3D

 49 50  0  0  0  0  0  0  0  0999 V2000
   45.8145    6.9739   13.0152 C   0  0  1  0  0  0  0  0  0  0  0  0
   47.2715    6.8734   13.4070 C   0  0  0  0  0  0  0  0  0  0  0  0
   46.8763    7.7340   12.2478 C   0  0  2  0  0  0  0  0  0  0  0  0
   45.1190    5.7936   12.3784 C   0  0  0  0  0  0  0  0  0  0  0  0
   46.9526    9.1906   12.3650 N   0  0  0  0  0  0  0  0  0  0  0  0
   45.0763    4.5399   13.0113 C   0  0  0  0  0  0  0  0  0  0  0  0
   44.4595    5.9163   11.1449 C   0  0  0  0  0  0  0  0  0  0  0  0
   43.8014    4.8323   10.5579 C   0  0  0  0  0  0  0  0  0  0  0  0
   44.4181    3.4517   12.4317 C   0  0  0  0  0  0  0  0  0  0  0  0
   43.7822    3.5985   11.2023 C   0  0  0  0  0  0  0  0  0  0  0  0
   45.2967    6.1799   12.6235 S   0  0  0  0  0  0  0  0  0  0  0  0
   45.3881    5.3527   13.7996 O   0  0  0  0  0  0  0  0  0  0  0  0
   44.4063    7.3061   12.5008 O   0  0  0  0  0  0  0  0  0  0  0  0
   46.7654    6.7217   12.2710 O   0  0  0  0  0  0  0  0  0  0  0  0
   45.0306    5.1882   11.3910 O   0  0  0  0  0  0  0  0  0  0  0  0
   44.8587    5.1307   12.4942 C   0  0  2  0  0  0  0  0  0  0  0  0
   44.9888    4.0339   11.4629 C   0  0  0  0  0  0  0  0  0  0  0  0
   43.8941    5.0460   11.3287 C   0  0  1  0  0  0  0  0  0  0  0  0
   45.8675    6.2540   12.5491 C   0  0  0  0  0  0  0  0  0  0  0  0
   42.5082    4.6295   11.5443 N   0  0  0  0  0  0  0  0  0  0  0  0
   45.4563    7.5967   12.5838 C   0  0  0  0  0  0  0  0  0  0  0  0
   47.2488    6.0002   12.6032 C   0  0  0  0  0  0  0  0  0  0  0  0
   48.1798    7.0404   12.6696 C   0  0  0  0  0  0  0  0  0  0  0  0
   46.3818    8.6415   12.6521 C   0  0  0  0  0  0  0  0  0  0  0  0
   47.7449    8.3621   12.6924 C   0  0  0  0  0  0  0  0  0  0  0  0
   45.1842    7.5601   13.6808 H   0  0  0  0  0  0  0  0  0  0  0  0
   47.8085    5.9568   13.1886 H   0  0  0  0  0  0  0  0  0  0  0  0
   47.5752    7.3433   14.3355 H   0  0  0  0  0  0  0  0  0  0  0  0
   47.1337    7.3591   11.2586 H   0  0  0  0  0  0  0  0  0  0  0  0
   46.7527    9.5029   13.3137 H   0  0  0  0  0  0  0  0  0  0  0  0
   47.8934    9.5193   12.1515 H   0  0  0  0  0  0  0  0  0  0  0  0
   45.5644    4.4093   13.9740 H   0  0  0  0  0  0  0  0  0  0  0  0
   44.4582    6.8767   10.6331 H   0  0  0  0  0  0  0  0  0  0  0  0
   43.3010    4.9560    9.6013 H   0  0  0  0  0  0  0  0  0  0  0  0
   44.4014    2.4934   12.9429 H   0  0  0  0  0  0  0  0  0  0  0  0
   43.2685    2.7551   10.7490 H   0  0  0  0  0  0  0  0  0  0  0  0
   46.6552    7.4735   11.6532 H   0  0  0  0  0  0  0  0  0  0  0  0
   45.4287    4.3236   11.6243 H   0  0  0  0  0  0  0  0  0  0  0  0
   44.4847    4.8158   13.4651 H   0  0  0  0  0  0  0  0  0  0  0  0
   45.7942    4.0804   10.7410 H   0  0  0  0  0  0  0  0  0  0  0  0
   44.7284    3.0244   11.7586 H   0  0  0  0  0  0  0  0  0  0  0  0
   44.0187    5.7585   10.5158 H   0  0  0  0  0  0  0  0  0  0  0  0
   42.4021    4.1017   12.4117 H   0  0  0  0  0  0  0  0  0  0  0  0
   41.8992    5.4429   11.6314 H   0  0  0  0  0  0  0  0  0  0  0  0
   44.3939    7.8328   12.5576 H   0  0  0  0  0  0  0  0  0  0  0  0
   47.6064    4.9731   12.5939 H   0  0  0  0  0  0  0  0  0  0  0  0
   49.2432    6.8158   12.7061 H   0  0  0  0  0  0  0  0  0  0  0  0
   46.0359    9.6715   12.6755 H   0  0  0  0  0  0  0  0  0  0  0  0
   48.4671    9.1723   12.7449 H   0  0  0  0  0  0  0  0  0  0  0  0
  2  1  1  0
  3  1  1  0
  1  4  1  0
  3  5  1  0
  6  4  2  0
  7  4  1  0
  8  7  2  0
  9  6  1  0
 10  9  2  0
  3  2  1  0
  8 10  1  0
 12 11  2  0
 13 11  2  0
 14 11  1  0
 15 11  1  0
 17 16  1  0
 18 16  1  0
 16 19  1  0
 18 20  1  0
 21 19  2  0
 22 19  1  0
 23 22  2  0
 24 21  1  0
 25 24  2  0
 18 17  1  0
 23 25  1  0
  1 26  1  1
  2 27  1  0
  2 28  1  0
  3 29  1  6
  5 30  1  0
  5 31  1  0
  6 32  1  0
  7 33  1  0
  8 34  1  0
  9 35  1  0
 10 36  1  0
 14 37  1  0
 15 38  1  0
 16 39  1  1
 17 40  1  0
 17 41  1  0
 18 42  1  6
 20 43  1  0
 20 44  1  0
 21 45  1  0
 22 46  1  0
 23 47  1  0
 24 48  1  0
 25 49  1  0
M  END
> <Uni-Dock RESULT> 
ENERGY=   -5.441  LOWER_BOUND=    2.688  UPPER_BOUND=    4.813
INTER + INTRA:          -5.441
INTER:                  -5.441
INTRA:                   0.000
UNBOUND:                 0.000

$$$$
