
     RDKit          3D

 49 50  0  0  0  0  0  0  0  0999 V2000
   44.6676    3.0279    9.5078 C   0  0  1  0  0  0  0  0  0  0  0  0
   44.1428    3.4898    8.1676 C   0  0  0  0  0  0  0  0  0  0  0  0
   45.6192    3.3659    8.3791 C   0  0  2  0  0  0  0  0  0  0  0  0
   44.5708    3.9352   10.7118 C   0  0  0  0  0  0  0  0  0  0  0  0
   46.3546    2.3021    7.6951 N   0  0  0  0  0  0  0  0  0  0  0  0
   45.7046    4.2593   11.4757 C   0  0  0  0  0  0  0  0  0  0  0  0
   43.3376    4.4611   11.1320 C   0  0  0  0  0  0  0  0  0  0  0  0
   43.2415    5.2880   12.2545 C   0  0  0  0  0  0  0  0  0  0  0  0
   45.6155    5.0864   12.5984 C   0  0  0  0  0  0  0  0  0  0  0  0
   44.3826    5.6018   12.9868 C   0  0  0  0  0  0  0  0  0  0  0  0
   44.3795    4.0720   10.1660 S   0  0  0  0  0  0  0  0  0  0  0  0
   44.1780    5.2339    9.3382 O   0  0  0  0  0  0  0  0  0  0  0  0
   43.3107    3.2359   10.6501 O   0  0  0  0  0  0  0  0  0  0  0  0
   45.4176    3.0981    9.4261 O   0  0  0  0  0  0  0  0  0  0  0  0
   45.2518    4.5560   11.4224 O   0  0  0  0  0  0  0  0  0  0  0  0
   43.8169    4.3236   10.9561 C   0  0  2  0  0  0  0  0  0  0  0  0
   44.3956    5.4007   11.8440 C   0  0  0  0  0  0  0  0  0  0  0  0
   44.1749    4.0279   12.3969 C   0  0  1  0  0  0  0  0  0  0  0  0
   44.6432    3.7340    9.8376 C   0  0  0  0  0  0  0  0  0  0  0  0
   43.1040    3.8258   13.3721 N   0  0  0  0  0  0  0  0  0  0  0  0
   45.2540    4.5492    8.8697 C   0  0  0  0  0  0  0  0  0  0  0  0
   44.8030    2.3443    9.7049 C   0  0  0  0  0  0  0  0  0  0  0  0
   45.5546    1.7923    8.6640 C   0  0  0  0  0  0  0  0  0  0  0  0
   46.0068    4.0034    7.8264 C   0  0  0  0  0  0  0  0  0  0  0  0
   46.1588    2.6235    7.7256 C   0  0  0  0  0  0  0  0  0  0  0  0
   44.5270    1.9718    9.7286 H   0  0  0  0  0  0  0  0  0  0  0  0
   43.6437    2.7615    7.5394 H   0  0  0  0  0  0  0  0  0  0  0  0
   43.7383    4.4918    8.0766 H   0  0  0  0  0  0  0  0  0  0  0  0
   46.1657    4.3053    8.4449 H   0  0  0  0  0  0  0  0  0  0  0  0
   45.8178    1.4363    7.6623 H   0  0  0  0  0  0  0  0  0  0  0  0
   47.2139    2.0810    8.1979 H   0  0  0  0  0  0  0  0  0  0  0  0
   46.6758    3.8609   11.1896 H   0  0  0  0  0  0  0  0  0  0  0  0
   42.4346    4.2219   10.5741 H   0  0  0  0  0  0  0  0  0  0  0  0
   42.2754    5.6850   12.5547 H   0  0  0  0  0  0  0  0  0  0  0  0
   46.5096    5.3248   13.1686 H   0  0  0  0  0  0  0  0  0  0  0  0
   44.3106    6.2449   13.8598 H   0  0  0  0  0  0  0  0  0  0  0  0
   45.3291    2.2140    9.8391 H   0  0  0  0  0  0  0  0  0  0  0  0
   45.7831    5.3243   11.1267 H   0  0  0  0  0  0  0  0  0  0  0  0
   42.7553    4.4191   10.7345 H   0  0  0  0  0  0  0  0  0  0  0  0
   43.7324    6.1986   12.1576 H   0  0  0  0  0  0  0  0  0  0  0  0
   45.4201    5.7173   11.6881 H   0  0  0  0  0  0  0  0  0  0  0  0
   45.0706    3.4371   12.5791 H   0  0  0  0  0  0  0  0  0  0  0  0
   43.4199    4.0799   14.3078 H   0  0  0  0  0  0  0  0  0  0  0  0
   42.8442    2.8408   13.4195 H   0  0  0  0  0  0  0  0  0  0  0  0
   45.1387    5.6293    8.9294 H   0  0  0  0  0  0  0  0  0  0  0  0
   44.3297    1.6803   10.4249 H   0  0  0  0  0  0  0  0  0  0  0  0
   45.6635    0.7137    8.5865 H   0  0  0  0  0  0  0  0  0  0  0  0
   46.4703    4.6577    7.0930 H   0  0  0  0  0  0  0  0  0  0  0  0
   46.7423    2.1970    6.9143 H   0  0  0  0  0  0  0  0  0  0  0  0
  2  1  1  0
  3  1  1  0
  1  4  1  0
  3  5  1  0
  6  4  2  0
  7  4  1  0
  8  7  2  0
  9  6  1  0
 10  9  2  0
  3  2  1  0
  8 10  1  0
 12 11  2  0
 13 11  2  0
 14 11  1  0
 15 11  1  0
 17 16  1  0
 18 16  1  0
 16 19  1  0
 18 20  1  0
 21 19  2  0
 22 19  1  0
 23 22  2  0
 24 21  1  0
 25 24  2  0
 18 17  1  0
 23 25  1  0
  1 26  1  1
  2 27  1  0
  2 28  1  0
  3 29  1  6
  5 30  1  0
  5 31  1  0
  6 32  1  0
  7 33  1  0
  8 34  1  0
  9 35  1  0
 10 36  1  0
 14 37  1  0
 15 38  1  0
 16 39  1  1
 17 40  1  0
 17 41  1  0
 18 42  1  6
 20 43  1  0
 20 44  1  0
 21 45  1  0
 22 46  1  0
 23 47  1  0
 24 48  1  0
 25 49  1  0
M  END
> <Uni-Dock RESULT> 
ENERGY=   -6.484  LOWER_BOUND=    0.000  UPPER_BOUND=    0.000
INTER + INTRA:          -6.484
INTER:                  -6.484
INTRA:                   0.000
UNBOUND:                 0.000

$$$$

     RDKit          3D

 49 50  0  0  0  0  0  0  0  0999 V2000
   44.2726    5.6193   12.3207 C   0  0  1  0  0  0  0  0  0  0  0  0
   43.5233    5.5962   11.0081 C   0  0  0  0  0  0  0  0  0  0  0  0
   44.1396    4.3356   11.5282 C   0  0  2  0  0  0  0  0  0  0  0  0
   45.6109    6.3135   12.4158 C   0  0  0  0  0  0  0  0  0  0  0  0
   43.2732    3.2604   12.0117 N   0  0  0  0  0  0  0  0  0  0  0  0
   46.7486    5.6443   12.8974 C   0  0  0  0  0  0  0  0  0  0  0  0
   45.7597    7.6640   12.0581 C   0  0  0  0  0  0  0  0  0  0  0  0
   46.9926    8.3142   12.1596 C   0  0  0  0  0  0  0  0  0  0  0  0
   47.9845    6.2883   13.0002 C   0  0  0  0  0  0  0  0  0  0  0  0
   48.1060    7.6241   12.6296 C   0  0  0  0  0  0  0  0  0  0  0  0
   45.2801    6.2776   11.9233 S   0  0  0  0  0  0  0  0  0  0  0  0
   45.4491    6.2590   10.4927 O   0  0  0  0  0  0  0  0  0  0  0  0
   44.6237    7.3408   12.6406 O   0  0  0  0  0  0  0  0  0  0  0  0
   44.5535    4.9171   12.3644 O   0  0  0  0  0  0  0  0  0  0  0  0
   46.7397    6.0671   12.5552 O   0  0  0  0  0  0  0  0  0  0  0  0
   45.7384    7.1421   12.1399 C   0  0  2  0  0  0  0  0  0  0  0  0
   47.2460    7.1165   12.0387 C   0  0  0  0  0  0  0  0  0  0  0  0
   46.5993    7.3773   13.3626 C   0  0  1  0  0  0  0  0  0  0  0  0
   44.9453    5.8631   12.0109 C   0  0  0  0  0  0  0  0  0  0  0  0
   46.6791    8.7220   13.9320 N   0  0  0  0  0  0  0  0  0  0  0  0
   45.1034    5.0112   10.9047 C   0  0  0  0  0  0  0  0  0  0  0  0
   43.9941    5.4955   12.9777 C   0  0  0  0  0  0  0  0  0  0  0  0
   43.2473    4.3206   12.8567 C   0  0  0  0  0  0  0  0  0  0  0  0
   44.3595    3.8349   10.7778 C   0  0  0  0  0  0  0  0  0  0  0  0
   43.4324    3.4888   11.7566 C   0  0  0  0  0  0  0  0  0  0  0  0
   43.6555    5.7093   13.2123 H   0  0  0  0  0  0  0  0  0  0  0  0
   42.4450    5.6994   11.0371 H   0  0  0  0  0  0  0  0  0  0  0  0
   43.9792    6.0454   10.1327 H   0  0  0  0  0  0  0  0  0  0  0  0
   45.0172    3.9833   10.9885 H   0  0  0  0  0  0  0  0  0  0  0  0
   42.4696    3.6265   12.5206 H   0  0  0  0  0  0  0  0  0  0  0  0
   43.7754    2.6652   12.6703 H   0  0  0  0  0  0  0  0  0  0  0  0
   46.6708    4.6011   13.1966 H   0  0  0  0  0  0  0  0  0  0  0  0
   44.8984    8.2200   11.6935 H   0  0  0  0  0  0  0  0  0  0  0  0
   47.0805    9.3584   11.8716 H   0  0  0  0  0  0  0  0  0  0  0  0
   48.8496    5.7452   13.3717 H   0  0  0  0  0  0  0  0  0  0  0  0
   49.0659    8.1272   12.7091 H   0  0  0  0  0  0  0  0  0  0  0  0
   44.1940    5.0601   13.2646 H   0  0  0  0  0  0  0  0  0  0  0  0
   47.2661    5.5586   11.9038 H   0  0  0  0  0  0  0  0  0  0  0  0
   45.2551    8.0206   11.7159 H   0  0  0  0  0  0  0  0  0  0  0  0
   47.7256    7.9414   11.5246 H   0  0  0  0  0  0  0  0  0  0  0  0
   47.7487    6.1656   11.9074 H   0  0  0  0  0  0  0  0  0  0  0  0
   46.6637    6.5722   14.0921 H   0  0  0  0  0  0  0  0  0  0  0  0
   47.5677    8.8537   14.4147 H   0  0  0  0  0  0  0  0  0  0  0  0
   45.9530    8.8566   14.6352 H   0  0  0  0  0  0  0  0  0  0  0  0
   45.8183    5.2710   10.1268 H   0  0  0  0  0  0  0  0  0  0  0  0
   43.8308    6.1393   13.8392 H   0  0  0  0  0  0  0  0  0  0  0  0
   42.5196    4.0595   13.6207 H   0  0  0  0  0  0  0  0  0  0  0  0
   44.5041    3.1932    9.9129 H   0  0  0  0  0  0  0  0  0  0  0  0
   42.8518    2.5755   11.6591 H   0  0  0  0  0  0  0  0  0  0  0  0
  2  1  1  0
  3  1  1  0
  1  4  1  0
  3  5  1  0
  6  4  2  0
  7  4  1  0
  8  7  2  0
  9  6  1  0
 10  9  2  0
  3  2  1  0
  8 10  1  0
 12 11  2  0
 13 11  2  0
 14 11  1  0
 15 11  1  0
 17 16  1  0
 18 16  1  0
 16 19  1  0
 18 20  1  0
 21 19  2  0
 22 19  1  0
 23 22  2  0
 24 21  1  0
 25 24  2  0
 18 17  1  0
 23 25  1  0
  1 26  1  1
  2 27  1  0
  2 28  1  0
  3 29  1  6
  5 30  1  0
  5 31  1  0
  6 32  1  0
  7 33  1  0
  8 34  1  0
  9 35  1  0
 10 36  1  0
 14 37  1  0
 15 38  1  0
 16 39  1  1
 17 40  1  0
 17 41  1  0
 18 42  1  6
 20 43  1  0
 20 44  1  0
 21 45  1  0
 22 46  1  0
 23 47  1  0
 24 48  1  0
 25 49  1  0
M  END
> <Uni-Dock RESULT> 
ENERGY=   -5.711  LOWER_BOUND=    2.334  UPPER_BOUND=    3.915
INTER + INTRA:          -5.711
INTER:                  -5.711
INTRA:                   0.000
UNBOUND:                 0.000

$$$$

     RDKit          3D

 49 50  0  0  0  0  0  0  0  0999 V2000
   43.6210    4.1236   11.1657 C   0  0  1  0  0  0  0  0  0  0  0  0
   43.8060    3.3050   12.4230 C   0  0  0  0  0  0  0  0  0  0  0  0
   44.1541    4.7605   12.4321 C   0  0  2  0  0  0  0  0  0  0  0  0
   44.5368    3.9115    9.9831 C   0  0  0  0  0  0  0  0  0  0  0  0
   43.3210    5.6921   13.1926 N   0  0  0  0  0  0  0  0  0  0  0  0
   45.2441    4.9794    9.4058 C   0  0  0  0  0  0  0  0  0  0  0  0
   44.6887    2.6442    9.3957 C   0  0  0  0  0  0  0  0  0  0  0  0
   45.5227    2.4470    8.2919 C   0  0  0  0  0  0  0  0  0  0  0  0
   46.0804    4.7886    8.3028 C   0  0  0  0  0  0  0  0  0  0  0  0
   46.2203    3.5207    7.7466 C   0  0  0  0  0  0  0  0  0  0  0  0
   44.5703    3.6152   10.4973 S   0  0  0  0  0  0  0  0  0  0  0  0
   45.5545    2.9511   11.3134 O   0  0  0  0  0  0  0  0  0  0  0  0
   43.4834    2.9368    9.8384 O   0  0  0  0  0  0  0  0  0  0  0  0
   43.9111    4.7958   11.3605 O   0  0  0  0  0  0  0  0  0  0  0  0
   45.3839    4.4538    9.3979 O   0  0  0  0  0  0  0  0  0  0  0  0
   44.6923    3.1142    9.6381 C   0  0  2  0  0  0  0  0  0  0  0  0
   45.9538    3.4416    8.8733 C   0  0  0  0  0  0  0  0  0  0  0  0
   44.6212    3.7376    8.2605 C   0  0  1  0  0  0  0  0  0  0  0  0
   44.3070    3.9245   10.8532 C   0  0  0  0  0  0  0  0  0  0  0  0
   44.1699    2.9252    7.1312 N   0  0  0  0  0  0  0  0  0  0  0  0
   45.2004    4.1136   11.9211 C   0  0  0  0  0  0  0  0  0  0  0  0
   43.0268    4.4910   10.9746 C   0  0  0  0  0  0  0  0  0  0  0  0
   42.6599    5.2298   12.1027 C   0  0  0  0  0  0  0  0  0  0  0  0
   44.8395    4.8513   13.0519 C   0  0  0  0  0  0  0  0  0  0  0  0
   43.5685    5.4117   13.1409 C   0  0  0  0  0  0  0  0  0  0  0  0
   42.5905    4.3510   10.9008 H   0  0  0  0  0  0  0  0  0  0  0  0
   42.9182    2.9784   12.9514 H   0  0  0  0  0  0  0  0  0  0  0  0
   44.6277    2.5993   12.4766 H   0  0  0  0  0  0  0  0  0  0  0  0
   45.2178    4.9898   12.4717 H   0  0  0  0  0  0  0  0  0  0  0  0
   42.3325    5.4534   13.1236 H   0  0  0  0  0  0  0  0  0  0  0  0
   43.4085    6.6371   12.8190 H   0  0  0  0  0  0  0  0  0  0  0  0
   45.1426    5.9785    9.8244 H   0  0  0  0  0  0  0  0  0  0  0  0
   44.1468    1.7947    9.8062 H   0  0  0  0  0  0  0  0  0  0  0  0
   45.6254    1.4550    7.8600 H   0  0  0  0  0  0  0  0  0  0  0  0
   46.6197    5.6318    7.8790 H   0  0  0  0  0  0  0  0  0  0  0  0
   46.8697    3.3699    6.8886 H   0  0  0  0  0  0  0  0  0  0  0  0
   43.0732    5.0445   10.9176 H   0  0  0  0  0  0  0  0  0  0  0  0
   46.2552    4.6735    9.7883 H   0  0  0  0  0  0  0  0  0  0  0  0
   44.4433    2.0562    9.7005 H   0  0  0  0  0  0  0  0  0  0  0  0
   46.5307    2.6110    8.4833 H   0  0  0  0  0  0  0  0  0  0  0  0
   46.5565    4.2850    9.1886 H   0  0  0  0  0  0  0  0  0  0  0  0
   44.3464    4.7890    8.2003 H   0  0  0  0  0  0  0  0  0  0  0  0
   44.5728    3.2691    6.2598 H   0  0  0  0  0  0  0  0  0  0  0  0
   43.1584    2.9950    7.0216 H   0  0  0  0  0  0  0  0  0  0  0  0
   46.1951    3.6758   11.8710 H   0  0  0  0  0  0  0  0  0  0  0  0
   42.3018    4.3505   10.1760 H   0  0  0  0  0  0  0  0  0  0  0  0
   41.6635    5.6587   12.1695 H   0  0  0  0  0  0  0  0  0  0  0  0
   45.5514    4.9838   13.8621 H   0  0  0  0  0  0  0  0  0  0  0  0
   43.2853    5.9842   14.0199 H   0  0  0  0  0  0  0  0  0  0  0  0
  2  1  1  0
  3  1  1  0
  1  4  1  0
  3  5  1  0
  6  4  2  0
  7  4  1  0
  8  7  2  0
  9  6  1  0
 10  9  2  0
  3  2  1  0
  8 10  1  0
 12 11  2  0
 13 11  2  0
 14 11  1  0
 15 11  1  0
 17 16  1  0
 18 16  1  0
 16 19  1  0
 18 20  1  0
 21 19  2  0
 22 19  1  0
 23 22  2  0
 24 21  1  0
 25 24  2  0
 18 17  1  0
 23 25  1  0
  1 26  1  1
  2 27  1  0
  2 28  1  0
  3 29  1  6
  5 30  1  0
  5 31  1  0
  6 32  1  0
  7 33  1  0
  8 34  1  0
  9 35  1  0
 10 36  1  0
 14 37  1  0
 15 38  1  0
 16 39  1  1
 17 40  1  0
 17 41  1  0
 18 42  1  6
 20 43  1  0
 20 44  1  0
 21 45  1  0
 22 46  1  0
 23 47  1  0
 24 48  1  0
 25 49  1  0
M  END
> <Uni-Dock RESULT> 
ENERGY=   -5.545  LOWER_BOUND=    0.970  UPPER_BOUND=    4.094
INTER + INTRA:          -5.545
INTER:                  -5.545
INTRA:                   0.000
UNBOUND:                 0.000

$$$$

     RDKit          3D

 49 50  0  0  0  0  0  0  0  0999 V2000
   45.0393    5.6613   11.5937 C   0  0  1  0  0  0  0  0  0  0  0  0
   44.8216    4.3166   12.2489 C   0  0  0  0  0  0  0  0  0  0  0  0
   43.6949    5.2997   12.1897 C   0  0  2  0  0  0  0  0  0  0  0  0
   45.9093    6.6981   12.2647 C   0  0  0  0  0  0  0  0  0  0  0  0
   42.5529    5.0296   11.3161 N   0  0  0  0  0  0  0  0  0  0  0  0
   45.4333    7.9942   12.5245 C   0  0  0  0  0  0  0  0  0  0  0  0
   47.2379    6.4146   12.6233 C   0  0  0  0  0  0  0  0  0  0  0  0
   48.0509    7.3759   13.2299 C   0  0  0  0  0  0  0  0  0  0  0  0
   46.2407    8.9596   13.1318 C   0  0  0  0  0  0  0  0  0  0  0  0
   47.5502    8.6489   13.4857 C   0  0  0  0  0  0  0  0  0  0  0  0
   45.7942    6.1573   12.4828 S   0  0  0  0  0  0  0  0  0  0  0  0
   45.6936    5.4915   13.7565 O   0  0  0  0  0  0  0  0  0  0  0  0
   46.8109    5.8683   11.5037 O   0  0  0  0  0  0  0  0  0  0  0  0
   44.3854    6.0197   11.7278 O   0  0  0  0  0  0  0  0  0  0  0  0
   45.8250    7.7307   12.7947 O   0  0  0  0  0  0  0  0  0  0  0  0
   46.7251    6.5218   12.5518 C   0  0  2  0  0  0  0  0  0  0  0  0
   46.8916    7.6935   13.4914 C   0  0  0  0  0  0  0  0  0  0  0  0
   47.1607    7.8746   12.0307 C   0  0  1  0  0  0  0  0  0  0  0  0
   45.3466    5.9968   12.2269 C   0  0  0  0  0  0  0  0  0  0  0  0
   48.5421    8.0582   11.5871 N   0  0  0  0  0  0  0  0  0  0  0  0
   44.4445    5.6302   13.2400 C   0  0  0  0  0  0  0  0  0  0  0  0
   44.9282    5.8238   10.8967 C   0  0  0  0  0  0  0  0  0  0  0  0
   43.6591    5.3253   10.5899 C   0  0  0  0  0  0  0  0  0  0  0  0
   43.1742    5.1309   12.9398 C   0  0  0  0  0  0  0  0  0  0  0  0
   42.7810    4.9809   11.6130 C   0  0  0  0  0  0  0  0  0  0  0  0
   45.1119    5.6486   10.5081 H   0  0  0  0  0  0  0  0  0  0  0  0
   44.7833    3.4414   11.6112 H   0  0  0  0  0  0  0  0  0  0  0  0
   45.2620    4.1265   13.2215 H   0  0  0  0  0  0  0  0  0  0  0  0
   43.4231    5.7617   13.1375 H   0  0  0  0  0  0  0  0  0  0  0  0
   42.8457    4.6083   10.4355 H   0  0  0  0  0  0  0  0  0  0  0  0
   42.0789    5.8980   11.0682 H   0  0  0  0  0  0  0  0  0  0  0  0
   44.4136    8.2562   12.2498 H   0  0  0  0  0  0  0  0  0  0  0  0
   47.6471    5.4259   12.4260 H   0  0  0  0  0  0  0  0  0  0  0  0
   49.0737    7.1283   13.5012 H   0  0  0  0  0  0  0  0  0  0  0  0
   45.8452    9.9533   13.3255 H   0  0  0  0  0  0  0  0  0  0  0  0
   48.1801    9.3980   13.9577 H   0  0  0  0  0  0  0  0  0  0  0  0
   44.5451    6.2131   10.7806 H   0  0  0  0  0  0  0  0  0  0  0  0
   45.3444    7.8679   13.6373 H   0  0  0  0  0  0  0  0  0  0  0  0
   47.4987    5.7583   12.6130 H   0  0  0  0  0  0  0  0  0  0  0  0
   47.7328    7.6698   14.1744 H   0  0  0  0  0  0  0  0  0  0  0  0
   46.0084    8.1708   13.8992 H   0  0  0  0  0  0  0  0  0  0  0  0
   46.4265    8.4587   11.4790 H   0  0  0  0  0  0  0  0  0  0  0  0
   48.8249    9.0324   11.6923 H   0  0  0  0  0  0  0  0  0  0  0  0
   48.6306    7.8441   10.5939 H   0  0  0  0  0  0  0  0  0  0  0  0
   44.7390    5.7339   14.2822 H   0  0  0  0  0  0  0  0  0  0  0  0
   45.6059    6.0796   10.0852 H   0  0  0  0  0  0  0  0  0  0  0  0
   43.3607    5.2035    9.5519 H   0  0  0  0  0  0  0  0  0  0  0  0
   42.4958    4.8576   13.7434 H   0  0  0  0  0  0  0  0  0  0  0  0
   41.7944    4.5914   11.3774 H   0  0  0  0  0  0  0  0  0  0  0  0
  2  1  1  0
  3  1  1  0
  1  4  1  0
  3  5  1  0
  6  4  2  0
  7  4  1  0
  8  7  2  0
  9  6  1  0
 10  9  2  0
  3  2  1  0
  8 10  1  0
 12 11  2  0
 13 11  2  0
 14 11  1  0
 15 11  1  0
 17 16  1  0
 18 16  1  0
 16 19  1  0
 18 20  1  0
 21 19  2  0
 22 19  1  0
 23 22  2  0
 24 21  1  0
 25 24  2  0
 18 17  1  0
 23 25  1  0
  1 26  1  1
  2 27  1  0
  2 28  1  0
  3 29  1  6
  5 30  1  0
  5 31  1  0
  6 32  1  0
  7 33  1  0
  8 34  1  0
  9 35  1  0
 10 36  1  0
 14 37  1  0
 15 38  1  0
 16 39  1  1
 17 40  1  0
 17 41  1  0
 18 42  1  6
 20 43  1  0
 20 44  1  0
 21 45  1  0
 22 46  1  0
 23 47  1  0
 24 48  1  0
 25 49  1  0
M  END
> <Uni-Dock RESULT> 
ENERGY=   -5.418  LOWER_BOUND=    2.825  UPPER_BOUND=    4.545
INTER + INTRA:          -5.418
INTER:                  -5.418
INTRA:                   0.000
UNBOUND:                 0.000

$$$$

     RDKit          3D

 49 50  0  0  0  0  0  0  0  0999 V2000
   45.8867    7.4879   12.5741 C   0  0  1  0  0  0  0  0  0  0  0  0
   46.8769    7.3494   13.7078 C   0  0  0  0  0  0  0  0  0  0  0  0
   47.3706    7.6691   12.3316 C   0  0  2  0  0  0  0  0  0  0  0  0
   45.1765    6.2678   12.0364 C   0  0  0  0  0  0  0  0  0  0  0  0
   47.9126    8.9996   12.0555 N   0  0  0  0  0  0  0  0  0  0  0  0
   45.2124    5.9444   10.6696 C   0  0  0  0  0  0  0  0  0  0  0  0
   44.4256    5.4302   12.8783 C   0  0  0  0  0  0  0  0  0  0  0  0
   43.7543    4.3095   12.3821 C   0  0  0  0  0  0  0  0  0  0  0  0
   44.5442    4.8247   10.1673 C   0  0  0  0  0  0  0  0  0  0  0  0
   43.8158    4.0062   11.0252 C   0  0  0  0  0  0  0  0  0  0  0  0
   45.5730    6.2636   12.4791 S   0  0  0  0  0  0  0  0  0  0  0  0
   46.5427    5.3761   13.0689 O   0  0  0  0  0  0  0  0  0  0  0  0
   44.3841    6.7171   13.1549 O   0  0  0  0  0  0  0  0  0  0  0  0
   46.3359    7.5802   11.9710 O   0  0  0  0  0  0  0  0  0  0  0  0
   45.1400    5.5998   11.0843 O   0  0  0  0  0  0  0  0  0  0  0  0
   44.7505    5.6965   12.5572 C   0  0  2  0  0  0  0  0  0  0  0  0
   44.6775    4.5298   11.5995 C   0  0  0  0  0  0  0  0  0  0  0  0
   43.6558    5.6197   11.5144 C   0  0  1  0  0  0  0  0  0  0  0  0
   45.8494    6.7240   12.4224 C   0  0  0  0  0  0  0  0  0  0  0  0
   42.2853    5.3341   11.9373 N   0  0  0  0  0  0  0  0  0  0  0  0
   47.2031    6.3488   12.3877 C   0  0  0  0  0  0  0  0  0  0  0  0
   45.5586    8.0974   12.3610 C   0  0  0  0  0  0  0  0  0  0  0  0
   46.5718    9.0535   12.2504 C   0  0  0  0  0  0  0  0  0  0  0  0
   48.2209    7.3001   12.2775 C   0  0  0  0  0  0  0  0  0  0  0  0
   47.9039    8.6535   12.2063 C   0  0  0  0  0  0  0  0  0  0  0  0
   45.2800    8.3910   12.5881 H   0  0  0  0  0  0  0  0  0  0  0  0
   46.8971    8.1270   14.4621 H   0  0  0  0  0  0  0  0  0  0  0  0
   47.0990    6.3616   14.0961 H   0  0  0  0  0  0  0  0  0  0  0  0
   47.9000    6.8650   11.8229 H   0  0  0  0  0  0  0  0  0  0  0  0
   47.3864    9.7266   12.5385 H   0  0  0  0  0  0  0  0  0  0  0  0
   47.8420    9.2153   11.0612 H   0  0  0  0  0  0  0  0  0  0  0  0
   45.7728    6.5761    9.9835 H   0  0  0  0  0  0  0  0  0  0  0  0
   44.3627    5.6554   13.9409 H   0  0  0  0  0  0  0  0  0  0  0  0
   43.1844    3.6758   13.0565 H   0  0  0  0  0  0  0  0  0  0  0  0
   44.5928    4.5951    9.1061 H   0  0  0  0  0  0  0  0  0  0  0  0
   43.2950    3.1351   10.6370 H   0  0  0  0  0  0  0  0  0  0  0  0
   45.6575    8.2752   11.8410 H   0  0  0  0  0  0  0  0  0  0  0  0
   45.8959    5.0590   10.7744 H   0  0  0  0  0  0  0  0  0  0  0  0
   44.4540    5.4808   13.5822 H   0  0  0  0  0  0  0  0  0  0  0  0
   44.3788    3.5699   12.0046 H   0  0  0  0  0  0  0  0  0  0  0  0
   45.4024    4.4613   10.7971 H   0  0  0  0  0  0  0  0  0  0  0  0
   43.7356    6.2826   10.6549 H   0  0  0  0  0  0  0  0  0  0  0  0
   41.7666    4.8799   11.1859 H   0  0  0  0  0  0  0  0  0  0  0  0
   41.7861    6.1996   12.1420 H   0  0  0  0  0  0  0  0  0  0  0  0
   47.4684    5.2956   12.4501 H   0  0  0  0  0  0  0  0  0  0  0  0
   44.5229    8.4273   12.4034 H   0  0  0  0  0  0  0  0  0  0  0  0
   46.3182   10.1093   12.2028 H   0  0  0  0  0  0  0  0  0  0  0  0
   49.2595    6.9815   12.2504 H   0  0  0  0  0  0  0  0  0  0  0  0
   48.6938    9.3949   12.1222 H   0  0  0  0  0  0  0  0  0  0  0  0
  2  1  1  0
  3  1  1  0
  1  4  1  0
  3  5  1  0
  6  4  2  0
  7  4  1  0
  8  7  2  0
  9  6  1  0
 10  9  2  0
  3  2  1  0
  8 10  1  0
 12 11  2  0
 13 11  2  0
 14 11  1  0
 15 11  1  0
 17 16  1  0
 18 16  1  0
 16 19  1  0
 18 20  1  0
 21 19  2  0
 22 19  1  0
 23 22  2  0
 24 21  1  0
 25 24  2  0
 18 17  1  0
 23 25  1  0
  1 26  1  1
  2 27  1  0
  2 28  1  0
  3 29  1  6
  5 30  1  0
  5 31  1  0
  6 32  1  0
  7 33  1  0
  8 34  1  0
  9 35  1  0
 10 36  1  0
 14 37  1  0
 15 38  1  0
 16 39  1  1
 17 40  1  0
 17 41  1  0
 18 42  1  6
 20 43  1  0
 20 44  1  0
 21 45  1  0
 22 46  1  0
 23 47  1  0
 24 48  1  0
 25 49  1  0
M  END
> <Uni-Dock RESULT> 
ENERGY=   -5.340  LOWER_BOUND=    2.727  UPPER_BOUND=    4.698
INTER + INTRA:          -5.340
INTER:                  -5.340
INTRA:                   0.000
UNBOUND:                 0.000

$$$$

     RDKit          3D

 49 50  0  0  0  0  0  0  0  0999 V2000
   46.5289    6.7336   12.4836 C   0  0  1  0  0  0  0  0  0  0  0  0
   46.9721    7.9500   11.7032 C   0  0  0  0  0  0  0  0  0  0  0  0
   46.4908    8.1115   13.1110 C   0  0  2  0  0  0  0  0  0  0  0  0
   45.2408    6.0314   12.1233 C   0  0  0  0  0  0  0  0  0  0  0  0
   47.4471    8.4680   14.1591 N   0  0  0  0  0  0  0  0  0  0  0  0
   44.2396    5.8037   13.0823 C   0  0  0  0  0  0  0  0  0  0  0  0
   45.0109    5.5500   10.8235 C   0  0  0  0  0  0  0  0  0  0  0  0
   43.8273    4.8859   10.4901 C   0  0  0  0  0  0  0  0  0  0  0  0
   43.0534    5.1414   12.7552 C   0  0  0  0  0  0  0  0  0  0  0  0
   42.8473    4.6835   11.4574 C   0  0  0  0  0  0  0  0  0  0  0  0
   45.4556    6.5118   11.8470 S   0  0  0  0  0  0  0  0  0  0  0  0
   44.9770    7.6561   11.1140 O   0  0  0  0  0  0  0  0  0  0  0  0
   46.2485    5.4592   11.2643 O   0  0  0  0  0  0  0  0  0  0  0  0
   46.2676    7.0352   13.1276 O   0  0  0  0  0  0  0  0  0  0  0  0
   44.1713    5.8504   12.5447 O   0  0  0  0  0  0  0  0  0  0  0  0
   45.0520    5.7755   11.3000 C   0  0  2  0  0  0  0  0  0  0  0  0
   43.5591    5.6000   11.4552 C   0  0  0  0  0  0  0  0  0  0  0  0
   44.4793    4.4951   11.8691 C   0  0  1  0  0  0  0  0  0  0  0  0
   45.8035    6.7298   12.1978 C   0  0  0  0  0  0  0  0  0  0  0  0
   44.5201    3.2746   11.0643 N   0  0  0  0  0  0  0  0  0  0  0  0
   45.4104    8.0721   12.3328 C   0  0  0  0  0  0  0  0  0  0  0  0
   46.9453    6.3174   12.9054 C   0  0  0  0  0  0  0  0  0  0  0  0
   47.6529    7.1995   13.7266 C   0  0  0  0  0  0  0  0  0  0  0  0
   46.1139    8.9591   13.1522 C   0  0  0  0  0  0  0  0  0  0  0  0
   47.2348    8.5209   13.8514 C   0  0  0  0  0  0  0  0  0  0  0  0
   47.3262    6.0696   12.8110 H   0  0  0  0  0  0  0  0  0  0  0  0
   48.0299    8.0639   11.4980 H   0  0  0  0  0  0  0  0  0  0  0  0
   46.3331    8.3322   10.9148 H   0  0  0  0  0  0  0  0  0  0  0  0
   45.5178    8.5870   13.2240 H   0  0  0  0  0  0  0  0  0  0  0  0
   48.3411    7.9966   14.0272 H   0  0  0  0  0  0  0  0  0  0  0  0
   47.1044    8.1700   15.0723 H   0  0  0  0  0  0  0  0  0  0  0  0
   44.3861    6.1503   14.1032 H   0  0  0  0  0  0  0  0  0  0  0  0
   45.7686    5.6951   10.0562 H   0  0  0  0  0  0  0  0  0  0  0  0
   43.6734    4.5279    9.4756 H   0  0  0  0  0  0  0  0  0  0  0  0
   42.2934    4.9830   13.5159 H   0  0  0  0  0  0  0  0  0  0  0  0
   41.9260    4.1679   11.2006 H   0  0  0  0  0  0  0  0  0  0  0  0
   46.8153    6.2883   13.4477 H   0  0  0  0  0  0  0  0  0  0  0  0
   43.5172    6.5664   12.6840 H   0  0  0  0  0  0  0  0  0  0  0  0
   45.4265    5.7226   10.2791 H   0  0  0  0  0  0  0  0  0  0  0  0
   42.9745    5.4764   10.5509 H   0  0  0  0  0  0  0  0  0  0  0  0
   43.0443    6.1413   12.2401 H   0  0  0  0  0  0  0  0  0  0  0  0
   44.5803    4.3343   12.9408 H   0  0  0  0  0  0  0  0  0  0  0  0
   43.7584    2.6487   11.3252 H   0  0  0  0  0  0  0  0  0  0  0  0
   45.3822    2.7589   11.2396 H   0  0  0  0  0  0  0  0  0  0  0  0
   44.5411    8.4328   11.7871 H   0  0  0  0  0  0  0  0  0  0  0  0
   47.2907    5.2902   12.8117 H   0  0  0  0  0  0  0  0  0  0  0  0
   48.5317    6.8531   14.2642 H   0  0  0  0  0  0  0  0  0  0  0  0
   45.7861    9.9914   13.2400 H   0  0  0  0  0  0  0  0  0  0  0  0
   47.7841    9.2092   14.4878 H   0  0  0  0  0  0  0  0  0  0  0  0
  2  1  1  0
  3  1  1  0
  1  4  1  0
  3  5  1  0
  6  4  2  0
  7  4  1  0
  8  7  2  0
  9  6  1  0
 10  9  2  0
  3  2  1  0
  8 10  1  0
 12 11  2  0
 13 11  2  0
 14 11  1  0
 15 11  1  0
 17 16  1  0
 18 16  1  0
 16 19  1  0
 18 20  1  0
 21 19  2  0
 22 19  1  0
 23 22  2  0
 24 21  1  0
 25 24  2  0
 18 17  1  0
 23 25  1  0
  1 26  1  1
  2 27  1  0
  2 28  1  0
  3 29  1  6
  5 30  1  0
  5 31  1  0
  6 32  1  0
  7 33  1  0
  8 34  1  0
  9 35  1  0
 10 36  1  0
 14 37  1  0
 15 38  1  0
 16 39  1  1
 17 40  1  0
 17 41  1  0
 18 42  1  6
 20 43  1  0
 20 44  1  0
 21 45  1  0
 22 46  1  0
 23 47  1  0
 24 48  1  0
 25 49  1  0
M  END
> <Uni-Dock RESULT> 
ENERGY=   -5.319  LOWER_BOUND=    2.601  UPPER_BOUND=    4.749
INTER + INTRA:          -5.319
INTER:                  -5.319
INTRA:                   0.000
UNBOUND:                 0.000

$$$$

     RDKit          3D

 49 50  0  0  0  0  0  0  0  0999 V2000
   44.9618    5.1742   11.0384 C   0  0  1  0  0  0  0  0  0  0  0  0
   43.9994    6.3390   10.9947 C   0  0  0  0  0  0  0  0  0  0  0  0
   43.7867    5.2429   11.9913 C   0  0  2  0  0  0  0  0  0  0  0  0
   44.9704    4.1574    9.9212 C   0  0  0  0  0  0  0  0  0  0  0  0
   44.0080    5.5129   13.4120 N   0  0  0  0  0  0  0  0  0  0  0  0
   44.8235    2.7845   10.1814 C   0  0  0  0  0  0  0  0  0  0  0  0
   45.1595    4.5441    8.5837 C   0  0  0  0  0  0  0  0  0  0  0  0
   45.1837    3.6050    7.5491 C   0  0  0  0  0  0  0  0  0  0  0  0
   44.8457    1.8405    9.1513 C   0  0  0  0  0  0  0  0  0  0  0  0
   45.0248    2.2521    7.8341 C   0  0  0  0  0  0  0  0  0  0  0  0
   44.6114    4.6303    9.9485 S   0  0  0  0  0  0  0  0  0  0  0  0
   43.3047    5.0376    9.4989 O   0  0  0  0  0  0  0  0  0  0  0  0
   45.8407    5.2215    9.4845 O   0  0  0  0  0  0  0  0  0  0  0  0
   44.6440    4.7147   11.5502 O   0  0  0  0  0  0  0  0  0  0  0  0
   44.6955    3.0445    9.7210 O   0  0  0  0  0  0  0  0  0  0  0  0
   45.0272    4.3850    9.0703 C   0  0  2  0  0  0  0  0  0  0  0  0
   44.5300    3.0959    8.4583 C   0  0  0  0  0  0  0  0  0  0  0  0
   45.9665    3.2169    8.8591 C   0  0  1  0  0  0  0  0  0  0  0  0
   44.6103    4.7739   10.4691 C   0  0  0  0  0  0  0  0  0  0  0  0
   46.9846    3.2991    7.8124 N   0  0  0  0  0  0  0  0  0  0  0  0
   43.2564    4.8309   10.8410 C   0  0  0  0  0  0  0  0  0  0  0  0
   45.5619    5.1263   11.4411 C   0  0  0  0  0  0  0  0  0  0  0  0
   45.1815    5.5005   12.7327 C   0  0  0  0  0  0  0  0  0  0  0  0
   42.8695    5.2044   12.1308 C   0  0  0  0  0  0  0  0  0  0  0  0
   43.8339    5.5371   13.0778 C   0  0  0  0  0  0  0  0  0  0  0  0
   45.9429    5.3910   11.4560 H   0  0  0  0  0  0  0  0  0  0  0  0
   44.3511    7.3017   11.3463 H   0  0  0  0  0  0  0  0  0  0  0  0
   43.2915    6.4077   10.1760 H   0  0  0  0  0  0  0  0  0  0  0  0
   42.9402    4.5867   11.7956 H   0  0  0  0  0  0  0  0  0  0  0  0
   44.8135    6.1202   13.5573 H   0  0  0  0  0  0  0  0  0  0  0  0
   44.2140    4.6485   13.9125 H   0  0  0  0  0  0  0  0  0  0  0  0
   44.6877    2.4443   11.2059 H   0  0  0  0  0  0  0  0  0  0  0  0
   45.2903    5.5972    8.3436 H   0  0  0  0  0  0  0  0  0  0  0  0
   45.3270    3.9322    6.5227 H   0  0  0  0  0  0  0  0  0  0  0  0
   44.7249    0.7850    9.3806 H   0  0  0  0  0  0  0  0  0  0  0  0
   45.0429    1.5199    7.0314 H   0  0  0  0  0  0  0  0  0  0  0  0
   45.5859    4.7172   11.8203 H   0  0  0  0  0  0  0  0  0  0  0  0
   43.7811    2.6963    9.7717 H   0  0  0  0  0  0  0  0  0  0  0  0
   45.1358    5.2201    8.3804 H   0  0  0  0  0  0  0  0  0  0  0  0
   44.2835    3.1071    7.4029 H   0  0  0  0  0  0  0  0  0  0  0  0
   43.9004    2.4413    9.0492 H   0  0  0  0  0  0  0  0  0  0  0  0
   46.2661    2.6499    9.7385 H   0  0  0  0  0  0  0  0  0  0  0  0
   47.2260    2.3677    7.4745 H   0  0  0  0  0  0  0  0  0  0  0  0
   47.8472    3.6978    8.1825 H   0  0  0  0  0  0  0  0  0  0  0  0
   42.4897    4.5815   10.1105 H   0  0  0  0  0  0  0  0  0  0  0  0
   46.6189    5.1116   11.1848 H   0  0  0  0  0  0  0  0  0  0  0  0
   45.9389    5.7662   13.4655 H   0  0  0  0  0  0  0  0  0  0  0  0
   41.8152    5.2375   12.3919 H   0  0  0  0  0  0  0  0  0  0  0  0
   43.5352    5.8294   14.0808 H   0  0  0  0  0  0  0  0  0  0  0  0
  2  1  1  0
  3  1  1  0
  1  4  1  0
  3  5  1  0
  6  4  2  0
  7  4  1  0
  8  7  2  0
  9  6  1  0
 10  9  2  0
  3  2  1  0
  8 10  1  0
 12 11  2  0
 13 11  2  0
 14 11  1  0
 15 11  1  0
 17 16  1  0
 18 16  1  0
 16 19  1  0
 18 20  1  0
 21 19  2  0
 22 19  1  0
 23 22  2  0
 24 21  1  0
 25 24  2  0
 18 17  1  0
 23 25  1  0
  1 26  1  1
  2 27  1  0
  2 28  1  0
  3 29  1  6
  5 30  1  0
  5 31  1  0
  6 32  1  0
  7 33  1  0
  8 34  1  0
  9 35  1  0
 10 36  1  0
 14 37  1  0
 15 38  1  0
 16 39  1  1
 17 40  1  0
 17 41  1  0
 18 42  1  6
 20 43  1  0
 20 44  1  0
 21 45  1  0
 22 46  1  0
 23 47  1  0
 24 48  1  0
 25 49  1  0
M  END
> <Uni-Dock RESULT> 
ENERGY=   -5.076  LOWER_BOUND=    0.911  UPPER_BOUND=    4.152
INTER + INTRA:          -5.076
INTER:                  -5.076
INTRA:                   0.000
UNBOUND:                 0.000

$$$$

     RDKit          3D

 49 50  0  0  0  0  0  0  0  0999 V2000
   48.7262    4.8163   17.9383 C   0  0  1  0  0  0  0  0  0  0  0  0
   49.0520    3.4240   17.4480 C   0  0  0  0  0  0  0  0  0  0  0  0
   47.6820    3.9834   17.2245 C   0  0  2  0  0  0  0  0  0  0  0  0
   48.5952    5.0858   19.4189 C   0  0  0  0  0  0  0  0  0  0  0  0
   47.2640    4.3351   15.8673 N   0  0  0  0  0  0  0  0  0  0  0  0
   47.4411    5.6826   19.9537 C   0  0  0  0  0  0  0  0  0  0  0  0
   49.6366    4.7805   20.3113 C   0  0  0  0  0  0  0  0  0  0  0  0
   49.5254    5.0427   21.6795 C   0  0  0  0  0  0  0  0  0  0  0  0
   47.3233    5.9465   21.3209 C   0  0  0  0  0  0  0  0  0  0  0  0
   48.3663    5.6247   22.1841 C   0  0  0  0  0  0  0  0  0  0  0  0
   48.7212    4.5569   19.1789 S   0  0  0  0  0  0  0  0  0  0  0  0
   48.5517    3.1562   19.4708 O   0  0  0  0  0  0  0  0  0  0  0  0
   50.0009    5.2164   19.1233 O   0  0  0  0  0  0  0  0  0  0  0  0
   47.9858    4.8762   17.7894 O   0  0  0  0  0  0  0  0  0  0  0  0
   47.7869    5.3519   20.2126 O   0  0  0  0  0  0  0  0  0  0  0  0
   49.2121    4.8467   20.0030 C   0  0  2  0  0  0  0  0  0  0  0  0
   48.3754    4.9242   21.2591 C   0  0  0  0  0  0  0  0  0  0  0  0
   49.0010    6.1680   20.7109 C   0  0  1  0  0  0  0  0  0  0  0  0
   48.5561    4.5943   18.6661 C   0  0  0  0  0  0  0  0  0  0  0  0
   50.1153    6.7747   21.4382 N   0  0  0  0  0  0  0  0  0  0  0  0
   47.7051    3.4946   18.4634 C   0  0  0  0  0  0  0  0  0  0  0  0
   48.8006    5.4326   17.5652 C   0  0  0  0  0  0  0  0  0  0  0  0
   48.2077    5.1961   16.3220 C   0  0  0  0  0  0  0  0  0  0  0  0
   47.1092    3.2526   17.2227 C   0  0  0  0  0  0  0  0  0  0  0  0
   47.3594    4.1061   16.1520 C   0  0  0  0  0  0  0  0  0  0  0  0
   49.1731    5.6304   17.3713 H   0  0  0  0  0  0  0  0  0  0  0  0
   49.7200    3.3276   16.6003 H   0  0  0  0  0  0  0  0  0  0  0  0
   49.1465    2.6197   18.1693 H   0  0  0  0  0  0  0  0  0  0  0  0
   46.8898    3.5432   17.8279 H   0  0  0  0  0  0  0  0  0  0  0  0
   48.0267    4.7538   15.3366 H   0  0  0  0  0  0  0  0  0  0  0  0
   46.5217    5.0341   15.8916 H   0  0  0  0  0  0  0  0  0  0  0  0
   46.6179    5.9456   19.2928 H   0  0  0  0  0  0  0  0  0  0  0  0
   50.5518    4.3297   19.9331 H   0  0  0  0  0  0  0  0  0  0  0  0
   50.3446    4.7921   22.3482 H   0  0  0  0  0  0  0  0  0  0  0  0
   46.4171    6.4047   21.7085 H   0  0  0  0  0  0  0  0  0  0  0  0
   48.2773    5.8293   23.2476 H   0  0  0  0  0  0  0  0  0  0  0  0
   48.3392    5.7306   17.4650 H   0  0  0  0  0  0  0  0  0  0  0  0
   47.0471    4.7556   20.4513 H   0  0  0  0  0  0  0  0  0  0  0  0
   50.1930    4.3895   20.1208 H   0  0  0  0  0  0  0  0  0  0  0  0
   48.7894    4.4903   22.1619 H   0  0  0  0  0  0  0  0  0  0  0  0
   47.2988    4.8307   21.1809 H   0  0  0  0  0  0  0  0  0  0  0  0
   48.3206    6.8806   20.2485 H   0  0  0  0  0  0  0  0  0  0  0  0
   49.7696    7.3622   22.1966 H   0  0  0  0  0  0  0  0  0  0  0  0
   50.6501    7.3900   20.8255 H   0  0  0  0  0  0  0  0  0  0  0  0
   47.5052    2.8133   19.2877 H   0  0  0  0  0  0  0  0  0  0  0  0
   49.4684    6.2837   17.6789 H   0  0  0  0  0  0  0  0  0  0  0  0
   48.4128    5.8620   15.4879 H   0  0  0  0  0  0  0  0  0  0  0  0
   46.4532    2.3958   17.0947 H   0  0  0  0  0  0  0  0  0  0  0  0
   46.8984    3.9188   15.1861 H   0  0  0  0  0  0  0  0  0  0  0  0
  2  1  1  0
  3  1  1  0
  1  4  1  0
  3  5  1  0
  6  4  2  0
  7  4  1  0
  8  7  2  0
  9  6  1  0
 10  9  2  0
  3  2  1  0
  8 10  1  0
 12 11  2  0
 13 11  2  0
 14 11  1  0
 15 11  1  0
 17 16  1  0
 18 16  1  0
 16 19  1  0
 18 20  1  0
 21 19  2  0
 22 19  1  0
 23 22  2  0
 24 21  1  0
 25 24  2  0
 18 17  1  0
 23 25  1  0
  1 26  1  1
  2 27  1  0
  2 28  1  0
  3 29  1  6
  5 30  1  0
  5 31  1  0
  6 32  1  0
  7 33  1  0
  8 34  1  0
  9 35  1  0
 10 36  1  0
 14 37  1  0
 15 38  1  0
 16 39  1  1
 17 40  1  0
 17 41  1  0
 18 42  1  6
 20 43  1  0
 20 44  1  0
 21 45  1  0
 22 46  1  0
 23 47  1  0
 24 48  1  0
 25 49  1  0
M  END
> <Uni-Dock RESULT> 
ENERGY=   -4.903  LOWER_BOUND=    7.803  UPPER_BOUND=    9.854
INTER + INTRA:          -4.903
INTER:                  -4.903
INTRA:                   0.000
UNBOUND:                 0.000

$$$$

     RDKit          3D

 49 50  0  0  0  0  0  0  0  0999 V2000
   48.5952    3.9054   18.3001 C   0  0  1  0  0  0  0  0  0  0  0  0
   47.4157    2.9783   18.1150 C   0  0  0  0  0  0  0  0  0  0  0  0
   48.2460    3.3617   16.9304 C   0  0  2  0  0  0  0  0  0  0  0  0
   48.3680    5.3655   18.6141 C   0  0  0  0  0  0  0  0  0  0  0  0
   49.1016    2.3568   16.2992 N   0  0  0  0  0  0  0  0  0  0  0  0
   48.9398    6.3797   17.8275 C   0  0  0  0  0  0  0  0  0  0  0  0
   47.6041    5.7631   19.7242 C   0  0  0  0  0  0  0  0  0  0  0  0
   47.4047    7.1127   20.0271 C   0  0  0  0  0  0  0  0  0  0  0  0
   48.7433    7.7309   18.1243 C   0  0  0  0  0  0  0  0  0  0  0  0
   47.9739    8.0970   19.2245 C   0  0  0  0  0  0  0  0  0  0  0  0
   47.9377    4.9637   18.5325 S   0  0  0  0  0  0  0  0  0  0  0  0
   46.5725    4.9021   18.0763 O   0  0  0  0  0  0  0  0  0  0  0  0
   48.3450    4.6866   19.8865 O   0  0  0  0  0  0  0  0  0  0  0  0
   48.8291    4.0212   17.5889 O   0  0  0  0  0  0  0  0  0  0  0  0
   48.4866    6.4154   18.1263 O   0  0  0  0  0  0  0  0  0  0  0  0
   47.8428    5.6356   19.2700 C   0  0  2  0  0  0  0  0  0  0  0  0
   47.6359    7.0633   18.8199 C   0  0  0  0  0  0  0  0  0  0  0  0
   48.8634    6.7047   19.5969 C   0  0  1  0  0  0  0  0  0  0  0  0
   48.1738    4.5603   18.2622 C   0  0  0  0  0  0  0  0  0  0  0  0
   48.9865    7.1771   20.9755 N   0  0  0  0  0  0  0  0  0  0  0  0
   47.3720    4.3472   17.1281 C   0  0  0  0  0  0  0  0  0  0  0  0
   49.2784    3.7103   18.4405 C   0  0  0  0  0  0  0  0  0  0  0  0
   49.5815    2.7046   17.5187 C   0  0  0  0  0  0  0  0  0  0  0  0
   47.6696    3.3431   16.2027 C   0  0  0  0  0  0  0  0  0  0  0  0
   48.7771    2.5229   16.3978 C   0  0  0  0  0  0  0  0  0  0  0  0
   49.4623    3.4698   18.7923 H   0  0  0  0  0  0  0  0  0  0  0  0
   47.4966    1.9700   18.5035 H   0  0  0  0  0  0  0  0  0  0  0  0
   46.4119    3.3851   18.1683 H   0  0  0  0  0  0  0  0  0  0  0  0
   47.7724    4.0416   16.2240 H   0  0  0  0  0  0  0  0  0  0  0  0
   49.5358    1.7464   16.9902 H   0  0  0  0  0  0  0  0  0  0  0  0
   49.8688    2.8042   15.7979 H   0  0  0  0  0  0  0  0  0  0  0  0
   49.5486    6.1117   16.9666 H   0  0  0  0  0  0  0  0  0  0  0  0
   47.1560    5.0067   20.3652 H   0  0  0  0  0  0  0  0  0  0  0  0
   46.8053    7.3923   20.8894 H   0  0  0  0  0  0  0  0  0  0  0  0
   49.1936    8.4951   17.4961 H   0  0  0  0  0  0  0  0  0  0  0  0
   47.8199    9.1471   19.4576 H   0  0  0  0  0  0  0  0  0  0  0  0
   49.6679    3.8466   18.0643 H   0  0  0  0  0  0  0  0  0  0  0  0
   47.9825    6.7048   17.3377 H   0  0  0  0  0  0  0  0  0  0  0  0
   47.2102    5.3072   20.0928 H   0  0  0  0  0  0  0  0  0  0  0  0
   46.8583    7.6344   19.3137 H   0  0  0  0  0  0  0  0  0  0  0  0
   47.7624    7.3083   17.7720 H   0  0  0  0  0  0  0  0  0  0  0  0
   49.7966    6.6941   19.0369 H   0  0  0  0  0  0  0  0  0  0  0  0
   49.3344    8.1355   20.9953 H   0  0  0  0  0  0  0  0  0  0  0  0
   49.6699    6.6179   21.4858 H   0  0  0  0  0  0  0  0  0  0  0  0
   46.4982    4.9745   16.9647 H   0  0  0  0  0  0  0  0  0  0  0  0
   49.9120    3.8331   19.3161 H   0  0  0  0  0  0  0  0  0  0  0  0
   50.4434    2.0626   17.6805 H   0  0  0  0  0  0  0  0  0  0  0  0
   47.0336    3.2022   15.3330 H   0  0  0  0  0  0  0  0  0  0  0  0
   49.0094    1.7406   15.6804 H   0  0  0  0  0  0  0  0  0  0  0  0
  2  1  1  0
  3  1  1  0
  1  4  1  0
  3  5  1  0
  6  4  2  0
  7  4  1  0
  8  7  2  0
  9  6  1  0
 10  9  2  0
  3  2  1  0
  8 10  1  0
 12 11  2  0
 13 11  2  0
 14 11  1  0
 15 11  1  0
 17 16  1  0
 18 16  1  0
 16 19  1  0
 18 20  1  0
 21 19  2  0
 22 19  1  0
 23 22  2  0
 24 21  1  0
 25 24  2  0
 18 17  1  0
 23 25  1  0
  1 26  1  1
  2 27  1  0
  2 28  1  0
  3 29  1  6
  5 30  1  0
  5 31  1  0
  6 32  1  0
  7 33  1  0
  8 34  1  0
  9 35  1  0
 10 36  1  0
 14 37  1  0
 15 38  1  0
 16 39  1  1
 17 40  1  0
 17 41  1  0
 18 42  1  6
 20 43  1  0
 20 44  1  0
 21 45  1  0
 22 46  1  0
 23 47  1  0
 24 48  1  0
 25 49  1  0
M  END
> <Uni-Dock RESULT> 
ENERGY=   -4.667  LOWER_BOUND=    7.378  UPPER_BOUND=    9.023
INTER + INTRA:          -4.667
INTER:                  -4.667
INTRA:                   0.000
UNBOUND:                 0.000

$$$$
