
     RDKit          3D

 49 50  0  0  0  0  0  0  0  0999 V2000
   43.7887    4.8009   10.9485 C   0  0  1  0  0  0  0  0  0  0  0  0
   43.6041    4.2297   12.3363 C   0  0  0  0  0  0  0  0  0  0  0  0
   44.5596    5.3638   12.1264 C   0  0  2  0  0  0  0  0  0  0  0  0
   44.5331    4.0305    9.8830 C   0  0  0  0  0  0  0  0  0  0  0  0
   44.2299    6.6869   12.6569 N   0  0  0  0  0  0  0  0  0  0  0  0
   45.4629    4.6752    9.0485 C   0  0  0  0  0  0  0  0  0  0  0  0
   44.3119    2.6597    9.6645 C   0  0  0  0  0  0  0  0  0  0  0  0
   45.0026    1.9590    8.6718 C   0  0  0  0  0  0  0  0  0  0  0  0
   46.1533    3.9815    8.0512 C   0  0  0  0  0  0  0  0  0  0  0  0
   45.9250    2.6210    7.8655 C   0  0  0  0  0  0  0  0  0  0  0  0
   45.0011    4.5487   10.3612 S   0  0  0  0  0  0  0  0  0  0  0  0
   46.0507    4.3148   11.3215 O   0  0  0  0  0  0  0  0  0  0  0  0
   44.9192    5.7280    9.5385 O   0  0  0  0  0  0  0  0  0  0  0  0
   44.9346    3.2926    9.3654 O   0  0  0  0  0  0  0  0  0  0  0  0
   43.6160    4.3880   11.1545 O   0  0  0  0  0  0  0  0  0  0  0  0
   44.9688    4.5055    9.1386 C   0  0  2  0  0  0  0  0  0  0  0  0
   44.2234    3.6680    8.1247 C   0  0  0  0  0  0  0  0  0  0  0  0
   45.5345    3.1843    8.6602 C   0  0  1  0  0  0  0  0  0  0  0  0
   44.4299    4.6378   10.5436 C   0  0  0  0  0  0  0  0  0  0  0  0
   46.6987    3.1555    7.7749 N   0  0  0  0  0  0  0  0  0  0  0  0
   45.2037    4.2861   11.6626 C   0  0  0  0  0  0  0  0  0  0  0  0
   43.1430    5.1496   10.7828 C   0  0  0  0  0  0  0  0  0  0  0  0
   42.6429    5.2880   12.0803 C   0  0  0  0  0  0  0  0  0  0  0  0
   44.7090    4.4203   12.9627 C   0  0  0  0  0  0  0  0  0  0  0  0
   43.4267    4.9207   13.1706 C   0  0  0  0  0  0  0  0  0  0  0  0
   42.9600    5.3995   10.5740 H   0  0  0  0  0  0  0  0  0  0  0  0
   44.0284    3.2595   12.5736 H   0  0  0  0  0  0  0  0  0  0  0  0
   42.6668    4.4260   12.8439 H   0  0  0  0  0  0  0  0  0  0  0  0
   45.6169    5.1110   12.2004 H   0  0  0  0  0  0  0  0  0  0  0  0
   43.2352    6.8911   12.5668 H   0  0  0  0  0  0  0  0  0  0  0  0
   44.7134    7.4134   12.1297 H   0  0  0  0  0  0  0  0  0  0  0  0
   45.6516    5.7390    9.1789 H   0  0  0  0  0  0  0  0  0  0  0  0
   43.5895    2.1257   10.2791 H   0  0  0  0  0  0  0  0  0  0  0  0
   44.8168    0.8971    8.5296 H   0  0  0  0  0  0  0  0  0  0  0  0
   46.8677    4.5054    7.4213 H   0  0  0  0  0  0  0  0  0  0  0  0
   46.4623    2.0778    7.0928 H   0  0  0  0  0  0  0  0  0  0  0  0
   44.4276    3.5757    8.5763 H   0  0  0  0  0  0  0  0  0  0  0  0
   43.7773    3.7700   11.8969 H   0  0  0  0  0  0  0  0  0  0  0  0
   45.4369    5.4080    8.7506 H   0  0  0  0  0  0  0  0  0  0  0  0
   44.1769    4.0266    7.1040 H   0  0  0  0  0  0  0  0  0  0  0  0
   43.3370    3.1280    8.4357 H   0  0  0  0  0  0  0  0  0  0  0  0
   45.4780    2.3345    9.3379 H   0  0  0  0  0  0  0  0  0  0  0  0
   46.8349    4.0482    7.3011 H   0  0  0  0  0  0  0  0  0  0  0  0
   47.5514    2.9868    8.3110 H   0  0  0  0  0  0  0  0  0  0  0  0
   46.2105    3.8987   11.5196 H   0  0  0  0  0  0  0  0  0  0  0  0
   42.5197    5.4467    9.9418 H   0  0  0  0  0  0  0  0  0  0  0  0
   41.6430    5.6840   12.2362 H   0  0  0  0  0  0  0  0  0  0  0  0
   45.3279    4.1371   13.8109 H   0  0  0  0  0  0  0  0  0  0  0  0
   43.0400    5.0260   14.1805 H   0  0  0  0  0  0  0  0  0  0  0  0
  2  1  1  0
  3  1  1  0
  1  4  1  0
  3  5  1  0
  6  4  2  0
  7  4  1  0
  8  7  2  0
  9  6  1  0
 10  9  2  0
  3  2  1  0
  8 10  1  0
 12 11  2  0
 13 11  2  0
 14 11  1  0
 15 11  1  0
 17 16  1  0
 18 16  1  0
 16 19  1  0
 18 20  1  0
 21 19  2  0
 22 19  1  0
 23 22  2  0
 24 21  1  0
 25 24  2  0
 18 17  1  0
 23 25  1  0
  1 26  1  6
  2 27  1  0
  2 28  1  0
  3 29  1  1
  5 30  1  0
  5 31  1  0
  6 32  1  0
  7 33  1  0
  8 34  1  0
  9 35  1  0
 10 36  1  0
 14 37  1  0
 15 38  1  0
 16 39  1  6
 17 40  1  0
 17 41  1  0
 18 42  1  1
 20 43  1  0
 20 44  1  0
 21 45  1  0
 22 46  1  0
 23 47  1  0
 24 48  1  0
 25 49  1  0
M  END
> <Uni-Dock RESULT> 
ENERGY=   -6.144  LOWER_BOUND=    0.000  UPPER_BOUND=    0.000
INTER + INTRA:          -6.144
INTER:                  -6.144
INTRA:                   0.000
UNBOUND:                 0.000

$$$$

     RDKit          3D

 49 50  0  0  0  0  0  0  0  0999 V2000
   45.1050    4.2650    9.2809 C   0  0  1  0  0  0  0  0  0  0  0  0
   45.9383    3.0323    9.0120 C   0  0  0  0  0  0  0  0  0  0  0  0
   44.5089    3.0680    8.5663 C   0  0  2  0  0  0  0  0  0  0  0  0
   44.6348    4.5965   10.6781 C   0  0  0  0  0  0  0  0  0  0  0  0
   44.2049    3.1408    7.1370 N   0  0  0  0  0  0  0  0  0  0  0  0
   43.3187    5.0341   10.9076 C   0  0  0  0  0  0  0  0  0  0  0  0
   45.4891    4.5089   11.7908 C   0  0  0  0  0  0  0  0  0  0  0  0
   45.0442    4.8237   13.0779 C   0  0  0  0  0  0  0  0  0  0  0  0
   42.8690    5.3549   12.1912 C   0  0  0  0  0  0  0  0  0  0  0  0
   43.7323    5.2459   13.2777 C   0  0  0  0  0  0  0  0  0  0  0  0
   44.1134    4.1167   10.2153 S   0  0  0  0  0  0  0  0  0  0  0  0
   43.6642    2.7527   10.3437 O   0  0  0  0  0  0  0  0  0  0  0  0
   43.3196    5.1677    9.6324 O   0  0  0  0  0  0  0  0  0  0  0  0
   44.5703    4.6393   11.6617 O   0  0  0  0  0  0  0  0  0  0  0  0
   45.5211    4.0609    9.4479 O   0  0  0  0  0  0  0  0  0  0  0  0
   43.8286    5.1451   10.8146 C   0  0  2  0  0  0  0  0  0  0  0  0
   44.5969    6.1173   11.6802 C   0  0  0  0  0  0  0  0  0  0  0  0
   43.9576    4.9179   12.3065 C   0  0  1  0  0  0  0  0  0  0  0  0
   44.5708    4.2575    9.8433 C   0  0  0  0  0  0  0  0  0  0  0  0
   42.8030    5.1033   13.1853 N   0  0  0  0  0  0  0  0  0  0  0  0
   44.4483    2.8583    9.8869 C   0  0  0  0  0  0  0  0  0  0  0  0
   45.3871    4.8038    8.8380 C   0  0  0  0  0  0  0  0  0  0  0  0
   46.0657    3.9898    7.9273 C   0  0  0  0  0  0  0  0  0  0  0  0
   45.1256    2.0384    8.9802 C   0  0  0  0  0  0  0  0  0  0  0  0
   45.9358    2.6056    8.0006 C   0  0  0  0  0  0  0  0  0  0  0  0
   45.3417    5.1335    8.6685 H   0  0  0  0  0  0  0  0  0  0  0  0
   46.1866    2.3679    9.8333 H   0  0  0  0  0  0  0  0  0  0  0  0
   46.7188    3.1024    8.2633 H   0  0  0  0  0  0  0  0  0  0  0  0
   43.8218    2.4383    9.1308 H   0  0  0  0  0  0  0  0  0  0  0  0
   44.8637    3.7412    6.6424 H   0  0  0  0  0  0  0  0  0  0  0  0
   43.2845    3.5536    6.9885 H   0  0  0  0  0  0  0  0  0  0  0  0
   42.6315    5.1269   10.0689 H   0  0  0  0  0  0  0  0  0  0  0  0
   46.5203    4.1881   11.6548 H   0  0  0  0  0  0  0  0  0  0  0  0
   45.7248    4.7400   13.9217 H   0  0  0  0  0  0  0  0  0  0  0  0
   41.8454    5.6894   12.3395 H   0  0  0  0  0  0  0  0  0  0  0  0
   43.3851    5.4917   14.2776 H   0  0  0  0  0  0  0  0  0  0  0  0
   44.6069    5.6173   11.6176 H   0  0  0  0  0  0  0  0  0  0  0  0
   45.9276    3.1932    9.6510 H   0  0  0  0  0  0  0  0  0  0  0  0
   42.8639    5.4966   10.4542 H   0  0  0  0  0  0  0  0  0  0  0  0
   44.1624    7.0932   11.8584 H   0  0  0  0  0  0  0  0  0  0  0  0
   45.6792    6.1269   11.6305 H   0  0  0  0  0  0  0  0  0  0  0  0
   44.6448    4.1439   12.6430 H   0  0  0  0  0  0  0  0  0  0  0  0
   42.0848    5.6805   12.7484 H   0  0  0  0  0  0  0  0  0  0  0  0
   42.3600    4.2056   13.3878 H   0  0  0  0  0  0  0  0  0  0  0  0
   43.8147    2.3975   10.6420 H   0  0  0  0  0  0  0  0  0  0  0  0
   45.4948    5.8840    8.7635 H   0  0  0  0  0  0  0  0  0  0  0  0
   46.6927    4.4389    7.1617 H   0  0  0  0  0  0  0  0  0  0  0  0
   45.0159    0.9580    9.0387 H   0  0  0  0  0  0  0  0  0  0  0  0
   46.4633    1.9701    7.2946 H   0  0  0  0  0  0  0  0  0  0  0  0
  2  1  1  0
  3  1  1  0
  1  4  1  0
  3  5  1  0
  6  4  2  0
  7  4  1  0
  8  7  2  0
  9  6  1  0
 10  9  2  0
  3  2  1  0
  8 10  1  0
 12 11  2  0
 13 11  2  0
 14 11  1  0
 15 11  1  0
 17 16  1  0
 18 16  1  0
 16 19  1  0
 18 20  1  0
 21 19  2  0
 22 19  1  0
 23 22  2  0
 24 21  1  0
 25 24  2  0
 18 17  1  0
 23 25  1  0
  1 26  1  6
  2 27  1  0
  2 28  1  0
  3 29  1  1
  5 30  1  0
  5 31  1  0
  6 32  1  0
  7 33  1  0
  8 34  1  0
  9 35  1  0
 10 36  1  0
 14 37  1  0
 15 38  1  0
 16 39  1  6
 17 40  1  0
 17 41  1  0
 18 42  1  1
 20 43  1  0
 20 44  1  0
 21 45  1  0
 22 46  1  0
 23 47  1  0
 24 48  1  0
 25 49  1  0
M  END
> <Uni-Dock RESULT> 
ENERGY=   -6.100  LOWER_BOUND=    0.982  UPPER_BOUND=    4.118
INTER + INTRA:          -6.100
INTER:                  -6.100
INTRA:                   0.000
UNBOUND:                 0.000

$$$$

     RDKit          3D

 49 50  0  0  0  0  0  0  0  0999 V2000
   46.8778    6.4370   12.6582 C   0  0  1  0  0  0  0  0  0  0  0  0
   47.4938    7.6428   11.9854 C   0  0  0  0  0  0  0  0  0  0  0  0
   46.8812    7.7892   13.3442 C   0  0  2  0  0  0  0  0  0  0  0  0
   45.5673    5.8612   12.1745 C   0  0  0  0  0  0  0  0  0  0  0  0
   47.7470    8.0258   14.4995 N   0  0  0  0  0  0  0  0  0  0  0  0
   44.5734    5.4712   13.0891 C   0  0  0  0  0  0  0  0  0  0  0  0
   45.2989    5.6677   10.8084 C   0  0  0  0  0  0  0  0  0  0  0  0
   44.0849    5.1287   10.3733 C   0  0  0  0  0  0  0  0  0  0  0  0
   43.3595    4.9275   12.6608 C   0  0  0  0  0  0  0  0  0  0  0  0
   43.1141    4.7596   11.3010 C   0  0  0  0  0  0  0  0  0  0  0  0
   45.5122    6.4568   12.7733 S   0  0  0  0  0  0  0  0  0  0  0  0
   44.9700    7.7926   12.7794 O   0  0  0  0  0  0  0  0  0  0  0  0
   45.5338    5.5979   13.9292 O   0  0  0  0  0  0  0  0  0  0  0  0
   44.8003    5.6250   11.6005 O   0  0  0  0  0  0  0  0  0  0  0  0
   47.0073    6.5763   12.2038 O   0  0  0  0  0  0  0  0  0  0  0  0
   44.9923    5.3490   12.7882 C   0  0  2  0  0  0  0  0  0  0  0  0
   44.9663    4.1750   11.8363 C   0  0  0  0  0  0  0  0  0  0  0  0
   43.9471    5.2617   11.6954 C   0  0  1  0  0  0  0  0  0  0  0  0
   46.1063    6.3650   12.6956 C   0  0  0  0  0  0  0  0  0  0  0  0
   42.5514    4.9770   12.0280 N   0  0  0  0  0  0  0  0  0  0  0  0
   45.8394    7.7316   12.5058 C   0  0  0  0  0  0  0  0  0  0  0  0
   47.4520    5.9818   12.8288 C   0  0  0  0  0  0  0  0  0  0  0  0
   48.4871    6.9178   12.7582 C   0  0  0  0  0  0  0  0  0  0  0  0
   46.8700    8.6725   12.4324 C   0  0  0  0  0  0  0  0  0  0  0  0
   48.1949    8.2641   12.5576 C   0  0  0  0  0  0  0  0  0  0  0  0
   47.5837    5.6967   13.0310 H   0  0  0  0  0  0  0  0  0  0  0  0
   46.9768    8.1107   11.1538 H   0  0  0  0  0  0  0  0  0  0  0  0
   48.5734    7.6756   11.8949 H   0  0  0  0  0  0  0  0  0  0  0  0
   45.9387    8.3346   13.3816 H   0  0  0  0  0  0  0  0  0  0  0  0
   48.6159    7.4968   14.4332 H   0  0  0  0  0  0  0  0  0  0  0  0
   47.2928    7.7112   15.3564 H   0  0  0  0  0  0  0  0  0  0  0  0
   44.7500    5.5937   14.1559 H   0  0  0  0  0  0  0  0  0  0  0  0
   46.0476    5.9428   10.0677 H   0  0  0  0  0  0  0  0  0  0  0  0
   43.9012    4.9968    9.3097 H   0  0  0  0  0  0  0  0  0  0  0  0
   42.6082    4.6360   13.3905 H   0  0  0  0  0  0  0  0  0  0  0  0
   42.1702    4.3398   10.9644 H   0  0  0  0  0  0  0  0  0  0  0  0
   44.9645    4.6757   11.7784 H   0  0  0  0  0  0  0  0  0  0  0  0
   47.0308    7.3573   11.6133 H   0  0  0  0  0  0  0  0  0  0  0  0
   44.6589    5.1398   13.8027 H   0  0  0  0  0  0  0  0  0  0  0  0
   44.6535    3.2131   12.2232 H   0  0  0  0  0  0  0  0  0  0  0  0
   45.7211    4.1066   11.0620 H   0  0  0  0  0  0  0  0  0  0  0  0
   44.0681    5.9064   10.8268 H   0  0  0  0  0  0  0  0  0  0  0  0
   42.4628    4.5469   12.9483 H   0  0  0  0  0  0  0  0  0  0  0  0
   42.0094    5.8418   12.0666 H   0  0  0  0  0  0  0  0  0  0  0  0
   44.8095    8.0700   12.4118 H   0  0  0  0  0  0  0  0  0  0  0  0
   47.6971    4.9342   12.9916 H   0  0  0  0  0  0  0  0  0  0  0  0
   49.5191    6.5933   12.8616 H   0  0  0  0  0  0  0  0  0  0  0  0
   46.6355    9.7237   12.2813 H   0  0  0  0  0  0  0  0  0  0  0  0
   48.9978    8.9940   12.5010 H   0  0  0  0  0  0  0  0  0  0  0  0
  2  1  1  0
  3  1  1  0
  1  4  1  0
  3  5  1  0
  6  4  2  0
  7  4  1  0
  8  7  2  0
  9  6  1  0
 10  9  2  0
  3  2  1  0
  8 10  1  0
 12 11  2  0
 13 11  2  0
 14 11  1  0
 15 11  1  0
 17 16  1  0
 18 16  1  0
 16 19  1  0
 18 20  1  0
 21 19  2  0
 22 19  1  0
 23 22  2  0
 24 21  1  0
 25 24  2  0
 18 17  1  0
 23 25  1  0
  1 26  1  6
  2 27  1  0
  2 28  1  0
  3 29  1  1
  5 30  1  0
  5 31  1  0
  6 32  1  0
  7 33  1  0
  8 34  1  0
  9 35  1  0
 10 36  1  0
 14 37  1  0
 15 38  1  0
 16 39  1  6
 17 40  1  0
 17 41  1  0
 18 42  1  1
 20 43  1  0
 20 44  1  0
 21 45  1  0
 22 46  1  0
 23 47  1  0
 24 48  1  0
 25 49  1  0
M  END
> <Uni-Dock RESULT> 
ENERGY=   -5.587  LOWER_BOUND=    2.709  UPPER_BOUND=    4.366
INTER + INTRA:          -5.587
INTER:                  -5.587
INTRA:                   0.000
UNBOUND:                 0.000

$$$$

     RDKit          3D

 49 50  0  0  0  0  0  0  0  0999 V2000
   44.9998    5.0926   11.5039 C   0  0  1  0  0  0  0  0  0  0  0  0
   44.6709    3.7717   12.1621 C   0  0  0  0  0  0  0  0  0  0  0  0
   43.5850    4.7814   11.9515 C   0  0  2  0  0  0  0  0  0  0  0  0
   45.7869    6.1529   12.2383 C   0  0  0  0  0  0  0  0  0  0  0  0
   42.5415    4.5164   10.9608 N   0  0  0  0  0  0  0  0  0  0  0  0
   45.4021    7.5038   12.1774 C   0  0  0  0  0  0  0  0  0  0  0  0
   46.9383    5.8429   12.9824 C   0  0  0  0  0  0  0  0  0  0  0  0
   47.6615    6.8334   13.6530 C   0  0  0  0  0  0  0  0  0  0  0  0
   46.1234    8.4993   12.8415 C   0  0  0  0  0  0  0  0  0  0  0  0
   47.2523    8.1626   13.5830 C   0  0  0  0  0  0  0  0  0  0  0  0
   44.9455    6.1910   12.3218 S   0  0  0  0  0  0  0  0  0  0  0  0
   44.0634    6.0081   13.4475 O   0  0  0  0  0  0  0  0  0  0  0  0
   44.6630    7.0757   11.2210 O   0  0  0  0  0  0  0  0  0  0  0  0
   46.3956    6.5989   12.8740 O   0  0  0  0  0  0  0  0  0  0  0  0
   45.2393    4.7280   11.7328 O   0  0  0  0  0  0  0  0  0  0  0  0
   45.6936    7.1017   11.9920 C   0  0  2  0  0  0  0  0  0  0  0  0
   47.1870    7.2319   11.7974 C   0  0  0  0  0  0  0  0  0  0  0  0
   46.5964    7.4655   13.1525 C   0  0  1  0  0  0  0  0  0  0  0  0
   45.0454    5.7386   11.9310 C   0  0  0  0  0  0  0  0  0  0  0  0
   46.5857    8.8216   13.7008 N   0  0  0  0  0  0  0  0  0  0  0  0
   44.2791    5.2419   12.9991 C   0  0  0  0  0  0  0  0  0  0  0  0
   45.1597    4.9303   10.7869 C   0  0  0  0  0  0  0  0  0  0  0  0
   44.5514    3.6742   10.7178 C   0  0  0  0  0  0  0  0  0  0  0  0
   43.6696    3.9859   12.9372 C   0  0  0  0  0  0  0  0  0  0  0  0
   43.8075    3.2015   11.7955 C   0  0  0  0  0  0  0  0  0  0  0  0
   45.1966    5.0471   10.4341 H   0  0  0  0  0  0  0  0  0  0  0  0
   44.9909    3.5913   13.1832 H   0  0  0  0  0  0  0  0  0  0  0  0
   44.6811    2.8816   11.5437 H   0  0  0  0  0  0  0  0  0  0  0  0
   43.2223    5.2800   12.8499 H   0  0  0  0  0  0  0  0  0  0  0  0
   42.9171    4.0545   10.1332 H   0  0  0  0  0  0  0  0  0  0  0  0
   42.1316    5.3900   10.6316 H   0  0  0  0  0  0  0  0  0  0  0  0
   44.5231    7.7844   11.6004 H   0  0  0  0  0  0  0  0  0  0  0  0
   47.2790    4.8109   13.0434 H   0  0  0  0  0  0  0  0  0  0  0  0
   48.5445    6.5640   14.2273 H   0  0  0  0  0  0  0  0  0  0  0  0
   45.8019    9.5359   12.7781 H   0  0  0  0  0  0  0  0  0  0  0  0
   47.8138    8.9339   14.1031 H   0  0  0  0  0  0  0  0  0  0  0  0
   46.8944    6.9808   12.1222 H   0  0  0  0  0  0  0  0  0  0  0  0
   45.1532    4.0943   12.4746 H   0  0  0  0  0  0  0  0  0  0  0  0
   45.0922    7.9039   11.5689 H   0  0  0  0  0  0  0  0  0  0  0  0
   47.5547    8.0810   11.2349 H   0  0  0  0  0  0  0  0  0  0  0  0
   47.7826    6.3358   11.6695 H   0  0  0  0  0  0  0  0  0  0  0  0
   46.8046    6.6950   13.8925 H   0  0  0  0  0  0  0  0  0  0  0  0
   46.1943    9.4928   13.0404 H   0  0  0  0  0  0  0  0  0  0  0  0
   45.9952    8.8662   14.5329 H   0  0  0  0  0  0  0  0  0  0  0  0
   44.1554    5.8436   13.8973 H   0  0  0  0  0  0  0  0  0  0  0  0
   45.7330    5.2874    9.9338 H   0  0  0  0  0  0  0  0  0  0  0  0
   44.6586    3.0688    9.8218 H   0  0  0  0  0  0  0  0  0  0  0  0
   43.0849    3.6241   13.7799 H   0  0  0  0  0  0  0  0  0  0  0  0
   43.3344    2.2246   11.7451 H   0  0  0  0  0  0  0  0  0  0  0  0
  2  1  1  0
  3  1  1  0
  1  4  1  0
  3  5  1  0
  6  4  2  0
  7  4  1  0
  8  7  2  0
  9  6  1  0
 10  9  2  0
  3  2  1  0
  8 10  1  0
 12 11  2  0
 13 11  2  0
 14 11  1  0
 15 11  1  0
 17 16  1  0
 18 16  1  0
 16 19  1  0
 18 20  1  0
 21 19  2  0
 22 19  1  0
 23 22  2  0
 24 21  1  0
 25 24  2  0
 18 17  1  0
 23 25  1  0
  1 26  1  6
  2 27  1  0
  2 28  1  0
  3 29  1  1
  5 30  1  0
  5 31  1  0
  6 32  1  0
  7 33  1  0
  8 34  1  0
  9 35  1  0
 10 36  1  0
 14 37  1  0
 15 38  1  0
 16 39  1  6
 17 40  1  0
 17 41  1  0
 18 42  1  1
 20 43  1  0
 20 44  1  0
 21 45  1  0
 22 46  1  0
 23 47  1  0
 24 48  1  0
 25 49  1  0
M  END
> <Uni-Dock RESULT> 
ENERGY=   -5.572  LOWER_BOUND=    2.356  UPPER_BOUND=    4.338
INTER + INTRA:          -5.572
INTER:                  -5.572
INTRA:                   0.000
UNBOUND:                 0.000

$$$$

     RDKit          3D

 49 50  0  0  0  0  0  0  0  0999 V2000
   45.5911    7.3243   12.0629 C   0  0  1  0  0  0  0  0  0  0  0  0
   46.2437    7.6949   13.3756 C   0  0  0  0  0  0  0  0  0  0  0  0
   47.0958    7.2418   12.2302 C   0  0  2  0  0  0  0  0  0  0  0  0
   44.7957    6.0472   11.9229 C   0  0  0  0  0  0  0  0  0  0  0  0
   47.9649    8.2072   11.5570 N   0  0  0  0  0  0  0  0  0  0  0  0
   44.9416    5.2316   10.7871 C   0  0  0  0  0  0  0  0  0  0  0  0
   43.8679    5.6382   12.8962 C   0  0  0  0  0  0  0  0  0  0  0  0
   43.1336    4.4575   12.7528 C   0  0  0  0  0  0  0  0  0  0  0  0
   44.2072    4.0525   10.6355 C   0  0  0  0  0  0  0  0  0  0  0  0
   43.3050    3.6637   11.6215 C   0  0  0  0  0  0  0  0  0  0  0  0
   45.6208    5.9920   11.7426 S   0  0  0  0  0  0  0  0  0  0  0  0
   46.7151    5.2903   12.3662 O   0  0  0  0  0  0  0  0  0  0  0  0
   45.5480    6.2649   10.3303 O   0  0  0  0  0  0  0  0  0  0  0  0
   44.2529    5.2511   12.1349 O   0  0  0  0  0  0  0  0  0  0  0  0
   45.4599    7.3778   12.5347 O   0  0  0  0  0  0  0  0  0  0  0  0
   44.6887    5.6221   11.0412 C   0  0  2  0  0  0  0  0  0  0  0  0
   43.1839    5.6268   11.1852 C   0  0  0  0  0  0  0  0  0  0  0  0
   43.9718    4.4690   11.7126 C   0  0  1  0  0  0  0  0  0  0  0  0
   45.5234    6.5787   11.8597 C   0  0  0  0  0  0  0  0  0  0  0  0
   43.8679    3.1725   11.0433 N   0  0  0  0  0  0  0  0  0  0  0  0
   46.5448    6.1199   12.7089 C   0  0  0  0  0  0  0  0  0  0  0  0
   45.3283    7.9680   11.7757 C   0  0  0  0  0  0  0  0  0  0  0  0
   46.1058    8.8598   12.5192 C   0  0  0  0  0  0  0  0  0  0  0  0
   47.3247    7.0062   13.4565 C   0  0  0  0  0  0  0  0  0  0  0  0
   47.1034    8.3773   13.3619 C   0  0  0  0  0  0  0  0  0  0  0  0
   45.2081    8.1587   11.4779 H   0  0  0  0  0  0  0  0  0  0  0  0
   46.1528    7.0238   14.2236 H   0  0  0  0  0  0  0  0  0  0  0  0
   46.2607    8.7421   13.6546 H   0  0  0  0  0  0  0  0  0  0  0  0
   47.5353    6.2499   12.3313 H   0  0  0  0  0  0  0  0  0  0  0  0
   47.5202    9.1210   11.4759 H   0  0  0  0  0  0  0  0  0  0  0  0
   48.1612    7.9061   10.6029 H   0  0  0  0  0  0  0  0  0  0  0  0
   45.6412    5.5221   10.0058 H   0  0  0  0  0  0  0  0  0  0  0  0
   43.7138    6.2486   13.7842 H   0  0  0  0  0  0  0  0  0  0  0  0
   42.4278    4.1615   13.5251 H   0  0  0  0  0  0  0  0  0  0  0  0
   44.3414    3.4403    9.7472 H   0  0  0  0  0  0  0  0  0  0  0  0
   42.7344    2.7459   11.5082 H   0  0  0  0  0  0  0  0  0  0  0  0
   43.5682    5.5546   11.5034 H   0  0  0  0  0  0  0  0  0  0  0  0
   45.7830    7.2291   13.4473 H   0  0  0  0  0  0  0  0  0  0  0  0
   45.0646    5.4461   10.0353 H   0  0  0  0  0  0  0  0  0  0  0  0
   42.5868    5.4884   10.2924 H   0  0  0  0  0  0  0  0  0  0  0  0
   42.7258    6.2824   11.9162 H   0  0  0  0  0  0  0  0  0  0  0  0
   44.0311    4.3990   12.7972 H   0  0  0  0  0  0  0  0  0  0  0  0
   44.0169    3.2537   10.0378 H   0  0  0  0  0  0  0  0  0  0  0  0
   44.5883    2.5346   11.3855 H   0  0  0  0  0  0  0  0  0  0  0  0
   46.7360    5.0518   12.7911 H   0  0  0  0  0  0  0  0  0  0  0  0
   44.5564    8.3617   11.1175 H   0  0  0  0  0  0  0  0  0  0  0  0
   45.9314    9.9293   12.4371 H   0  0  0  0  0  0  0  0  0  0  0  0
   48.1064    6.6239   14.1089 H   0  0  0  0  0  0  0  0  0  0  0  0
   47.7086    9.0683   13.9422 H   0  0  0  0  0  0  0  0  0  0  0  0
  2  1  1  0
  3  1  1  0
  1  4  1  0
  3  5  1  0
  6  4  2  0
  7  4  1  0
  8  7  2  0
  9  6  1  0
 10  9  2  0
  3  2  1  0
  8 10  1  0
 12 11  2  0
 13 11  2  0
 14 11  1  0
 15 11  1  0
 17 16  1  0
 18 16  1  0
 16 19  1  0
 18 20  1  0
 21 19  2  0
 22 19  1  0
 23 22  2  0
 24 21  1  0
 25 24  2  0
 18 17  1  0
 23 25  1  0
  1 26  1  6
  2 27  1  0
  2 28  1  0
  3 29  1  1
  5 30  1  0
  5 31  1  0
  6 32  1  0
  7 33  1  0
  8 34  1  0
  9 35  1  0
 10 36  1  0
 14 37  1  0
 15 38  1  0
 16 39  1  6
 17 40  1  0
 17 41  1  0
 18 42  1  1
 20 43  1  0
 20 44  1  0
 21 45  1  0
 22 46  1  0
 23 47  1  0
 24 48  1  0
 25 49  1  0
M  END
> <Uni-Dock RESULT> 
ENERGY=   -5.448  LOWER_BOUND=    2.396  UPPER_BOUND=    3.607
INTER + INTRA:          -5.448
INTER:                  -5.448
INTRA:                   0.000
UNBOUND:                 0.000

$$$$

     RDKit          3D

 49 50  0  0  0  0  0  0  0  0999 V2000
   44.7460    5.6973   12.5963 C   0  0  1  0  0  0  0  0  0  0  0  0
   43.4191    5.7833   11.8765 C   0  0  0  0  0  0  0  0  0  0  0  0
   44.4563    4.8146   11.3981 C   0  0  2  0  0  0  0  0  0  0  0  0
   45.7735    6.7977   12.4676 C   0  0  0  0  0  0  0  0  0  0  0  0
   44.2347    3.3796   11.5779 N   0  0  0  0  0  0  0  0  0  0  0  0
   47.1333    6.4922   12.2831 C   0  0  0  0  0  0  0  0  0  0  0  0
   45.4231    8.1562   12.5526 C   0  0  0  0  0  0  0  0  0  0  0  0
   46.3834    9.1653   12.4377 C   0  0  0  0  0  0  0  0  0  0  0  0
   48.0989    7.4961   12.1722 C   0  0  0  0  0  0  0  0  0  0  0  0
   47.7224    8.8341   12.2461 C   0  0  0  0  0  0  0  0  0  0  0  0
   45.8280    6.1712   11.9012 S   0  0  0  0  0  0  0  0  0  0  0  0
   45.6408    6.1229   10.4725 O   0  0  0  0  0  0  0  0  0  0  0  0
   46.7414    5.3177   12.6166 O   0  0  0  0  0  0  0  0  0  0  0  0
   46.1927    7.6777   12.3151 O   0  0  0  0  0  0  0  0  0  0  0  0
   44.3716    6.0149   12.5555 O   0  0  0  0  0  0  0  0  0  0  0  0
   46.7289    6.6049   12.6069 C   0  0  2  0  0  0  0  0  0  0  0  0
   46.8307    7.6955   13.6487 C   0  0  0  0  0  0  0  0  0  0  0  0
   47.0488    8.0302   12.2065 C   0  0  1  0  0  0  0  0  0  0  0  0
   45.3818    6.0064   12.2769 C   0  0  0  0  0  0  0  0  0  0  0  0
   48.3931    8.3871   11.7533 N   0  0  0  0  0  0  0  0  0  0  0  0
   44.8797    6.0079   10.9644 C   0  0  0  0  0  0  0  0  0  0  0  0
   44.5952    5.3962   13.2691 C   0  0  0  0  0  0  0  0  0  0  0  0
   43.3543    4.8282   12.9688 C   0  0  0  0  0  0  0  0  0  0  0  0
   43.6387    5.4432   10.6577 C   0  0  0  0  0  0  0  0  0  0  0  0
   42.8755    4.8541   11.6618 C   0  0  0  0  0  0  0  0  0  0  0  0
   44.7186    5.2202   13.5745 H   0  0  0  0  0  0  0  0  0  0  0  0
   43.2105    6.6407   11.2448 H   0  0  0  0  0  0  0  0  0  0  0  0
   42.5421    5.3984   12.3840 H   0  0  0  0  0  0  0  0  0  0  0  0
   44.9438    5.0700   10.4577 H   0  0  0  0  0  0  0  0  0  0  0  0
   43.7822    3.1776   12.4688 H   0  0  0  0  0  0  0  0  0  0  0  0
   45.1237    2.8807   11.5964 H   0  0  0  0  0  0  0  0  0  0  0  0
   47.4449    5.4511   12.2253 H   0  0  0  0  0  0  0  0  0  0  0  0
   44.3829    8.4358   12.7096 H   0  0  0  0  0  0  0  0  0  0  0  0
   46.0830   10.2084   12.5000 H   0  0  0  0  0  0  0  0  0  0  0  0
   49.1433    7.2307   12.0286 H   0  0  0  0  0  0  0  0  0  0  0  0
   48.4703    9.6174   12.1573 H   0  0  0  0  0  0  0  0  0  0  0  0
   46.5793    7.6450   13.2147 H   0  0  0  0  0  0  0  0  0  0  0  0
   43.7246    6.3663   11.9096 H   0  0  0  0  0  0  0  0  0  0  0  0
   47.5527    5.8941   12.5877 H   0  0  0  0  0  0  0  0  0  0  0  0
   47.6833    7.6834   14.3163 H   0  0  0  0  0  0  0  0  0  0  0  0
   45.9248    8.0723   14.1084 H   0  0  0  0  0  0  0  0  0  0  0  0
   46.2587    8.6135   11.7372 H   0  0  0  0  0  0  0  0  0  0  0  0
   49.0863    7.7007   12.0502 H   0  0  0  0  0  0  0  0  0  0  0  0
   48.4331    8.4064   10.7330 H   0  0  0  0  0  0  0  0  0  0  0  0
   45.4651    6.4587   10.1655 H   0  0  0  0  0  0  0  0  0  0  0  0
   44.9576    5.3626   14.2945 H   0  0  0  0  0  0  0  0  0  0  0  0
   42.7656    4.3654   13.7562 H   0  0  0  0  0  0  0  0  0  0  0  0
   43.2723    5.4613    9.6339 H   0  0  0  0  0  0  0  0  0  0  0  0
   41.9104    4.4143   11.4257 H   0  0  0  0  0  0  0  0  0  0  0  0
  2  1  1  0
  3  1  1  0
  1  4  1  0
  3  5  1  0
  6  4  2  0
  7  4  1  0
  8  7  2  0
  9  6  1  0
 10  9  2  0
  3  2  1  0
  8 10  1  0
 12 11  2  0
 13 11  2  0
 14 11  1  0
 15 11  1  0
 17 16  1  0
 18 16  1  0
 16 19  1  0
 18 20  1  0
 21 19  2  0
 22 19  1  0
 23 22  2  0
 24 21  1  0
 25 24  2  0
 18 17  1  0
 23 25  1  0
  1 26  1  6
  2 27  1  0
  2 28  1  0
  3 29  1  1
  5 30  1  0
  5 31  1  0
  6 32  1  0
  7 33  1  0
  8 34  1  0
  9 35  1  0
 10 36  1  0
 14 37  1  0
 15 38  1  0
 16 39  1  6
 17 40  1  0
 17 41  1  0
 18 42  1  1
 20 43  1  0
 20 44  1  0
 21 45  1  0
 22 46  1  0
 23 47  1  0
 24 48  1  0
 25 49  1  0
M  END
> <Uni-Dock RESULT> 
ENERGY=   -5.255  LOWER_BOUND=    2.667  UPPER_BOUND=    4.466
INTER + INTRA:          -5.255
INTER:                  -5.255
INTRA:                   0.000
UNBOUND:                 0.000

$$$$

     RDKit          3D

 49 50  0  0  0  0  0  0  0  0999 V2000
   48.8087    4.6218   18.3736 C   0  0  1  0  0  0  0  0  0  0  0  0
   48.1857    3.3045   17.9701 C   0  0  0  0  0  0  0  0  0  0  0  0
   47.8138    4.5533   17.2315 C   0  0  2  0  0  0  0  0  0  0  0  0
   48.4081    5.3108   19.6573 C   0  0  0  0  0  0  0  0  0  0  0  0
   48.2649    4.7314   15.8512 N   0  0  0  0  0  0  0  0  0  0  0  0
   48.1813    6.6980   19.6869 C   0  0  0  0  0  0  0  0  0  0  0  0
   48.2730    4.6089   20.8675 C   0  0  0  0  0  0  0  0  0  0  0  0
   47.9074    5.2583   22.0500 C   0  0  0  0  0  0  0  0  0  0  0  0
   47.8202    7.3540   20.8666 C   0  0  0  0  0  0  0  0  0  0  0  0
   47.6798    6.6322   22.0485 C   0  0  0  0  0  0  0  0  0  0  0  0
   47.9613    5.5193   18.9694 S   0  0  0  0  0  0  0  0  0  0  0  0
   46.5825    5.3188   18.5988 O   0  0  0  0  0  0  0  0  0  0  0  0
   48.7488    6.6455   18.5383 O   0  0  0  0  0  0  0  0  0  0  0  0
   48.0691    5.4734   20.5695 O   0  0  0  0  0  0  0  0  0  0  0  0
   48.7393    4.1748   18.5685 O   0  0  0  0  0  0  0  0  0  0  0  0
   48.5086    6.2859   19.7508 C   0  0  2  0  0  0  0  0  0  0  0  0
   49.3266    6.1138   21.0102 C   0  0  0  0  0  0  0  0  0  0  0  0
   47.8356    6.1998   21.1049 C   0  0  1  0  0  0  0  0  0  0  0  0
   48.3926    5.1430   18.7699 C   0  0  0  0  0  0  0  0  0  0  0  0
   47.2271    7.3869   21.7051 N   0  0  0  0  0  0  0  0  0  0  0  0
   47.1422    4.6286   18.3868 C   0  0  0  0  0  0  0  0  0  0  0  0
   49.5340    4.5736   18.1795 C   0  0  0  0  0  0  0  0  0  0  0  0
   49.4338    3.5254   17.2609 C   0  0  0  0  0  0  0  0  0  0  0  0
   47.0352    3.5793   17.4700 C   0  0  0  0  0  0  0  0  0  0  0  0
   48.1827    3.0270   16.9080 C   0  0  0  0  0  0  0  0  0  0  0  0
   49.8561    4.7470   18.1042 H   0  0  0  0  0  0  0  0  0  0  0  0
   47.4272    2.8576   18.6047 H   0  0  0  0  0  0  0  0  0  0  0  0
   48.8178    2.5760   17.4756 H   0  0  0  0  0  0  0  0  0  0  0  0
   46.8093    4.9317   17.4184 H   0  0  0  0  0  0  0  0  0  0  0  0
   49.2087    4.3711   15.7144 H   0  0  0  0  0  0  0  0  0  0  0  0
   48.3069    5.7222   15.6144 H   0  0  0  0  0  0  0  0  0  0  0  0
   48.2889    7.2776   18.7721 H   0  0  0  0  0  0  0  0  0  0  0  0
   48.4539    3.5358   20.8913 H   0  0  0  0  0  0  0  0  0  0  0  0
   47.8031    4.6891   22.9705 H   0  0  0  0  0  0  0  0  0  0  0  0
   47.6496    8.4276   20.8599 H   0  0  0  0  0  0  0  0  0  0  0  0
   47.3962    7.1386   22.9671 H   0  0  0  0  0  0  0  0  0  0  0  0
   48.9287    5.8753   20.8131 H   0  0  0  0  0  0  0  0  0  0  0  0
   48.0906    3.4420   18.6076 H   0  0  0  0  0  0  0  0  0  0  0  0
   48.5566    7.2702   19.2893 H   0  0  0  0  0  0  0  0  0  0  0  0
   49.9204    6.9533   21.3500 H   0  0  0  0  0  0  0  0  0  0  0  0
   49.7770    5.1508   21.2195 H   0  0  0  0  0  0  0  0  0  0  0  0
   47.3289    5.2709   21.3601 H   0  0  0  0  0  0  0  0  0  0  0  0
   47.5904    8.2464   21.2938 H   0  0  0  0  0  0  0  0  0  0  0  0
   46.2198    7.3965   21.5366 H   0  0  0  0  0  0  0  0  0  0  0  0
   46.2340    5.0518   18.8113 H   0  0  0  0  0  0  0  0  0  0  0  0
   50.5190    4.9554   18.4403 H   0  0  0  0  0  0  0  0  0  0  0  0
   50.3332    3.1019   16.8219 H   0  0  0  0  0  0  0  0  0  0  0  0
   46.0549    3.1978   17.1938 H   0  0  0  0  0  0  0  0  0  0  0  0
   48.1019    2.2112   16.1949 H   0  0  0  0  0  0  0  0  0  0  0  0
  2  1  1  0
  3  1  1  0
  1  4  1  0
  3  5  1  0
  6  4  2  0
  7  4  1  0
  8  7  2  0
  9  6  1  0
 10  9  2  0
  3  2  1  0
  8 10  1  0
 12 11  2  0
 13 11  2  0
 14 11  1  0
 15 11  1  0
 17 16  1  0
 18 16  1  0
 16 19  1  0
 18 20  1  0
 21 19  2  0
 22 19  1  0
 23 22  2  0
 24 21  1  0
 25 24  2  0
 18 17  1  0
 23 25  1  0
  1 26  1  6
  2 27  1  0
  2 28  1  0
  3 29  1  1
  5 30  1  0
  5 31  1  0
  6 32  1  0
  7 33  1  0
  8 34  1  0
  9 35  1  0
 10 36  1  0
 14 37  1  0
 15 38  1  0
 16 39  1  6
 17 40  1  0
 17 41  1  0
 18 42  1  1
 20 43  1  0
 20 44  1  0
 21 45  1  0
 22 46  1  0
 23 47  1  0
 24 48  1  0
 25 49  1  0
M  END
> <Uni-Dock RESULT> 
ENERGY=   -4.765  LOWER_BOUND=    7.929  UPPER_BOUND=   10.422
INTER + INTRA:          -4.765
INTER:                  -4.765
INTRA:                   0.000
UNBOUND:                 0.000

$$$$

     RDKit          3D

 49 50  0  0  0  0  0  0  0  0999 V2000
   48.5092    5.9663   19.9092 C   0  0  1  0  0  0  0  0  0  0  0  0
   47.4464    6.0494   20.9814 C   0  0  0  0  0  0  0  0  0  0  0  0
   48.8202    5.5728   21.3399 C   0  0  2  0  0  0  0  0  0  0  0  0
   48.4592    4.8939   18.8459 C   0  0  0  0  0  0  0  0  0  0  0  0
   49.6806    6.4205   22.1656 N   0  0  0  0  0  0  0  0  0  0  0  0
   49.6233    4.2011   18.4699 C   0  0  0  0  0  0  0  0  0  0  0  0
   47.2680    4.5653   18.1761 C   0  0  0  0  0  0  0  0  0  0  0  0
   47.2354    3.5752   17.1901 C   0  0  0  0  0  0  0  0  0  0  0  0
   49.5984    3.2134   17.4817 C   0  0  0  0  0  0  0  0  0  0  0  0
   48.4020    2.8981   16.8439 C   0  0  0  0  0  0  0  0  0  0  0  0
   48.8886    4.6996   19.5489 S   0  0  0  0  0  0  0  0  0  0  0  0
   48.6700    3.7309   20.5941 O   0  0  0  0  0  0  0  0  0  0  0  0
   50.1936    5.1414   19.1292 O   0  0  0  0  0  0  0  0  0  0  0  0
   48.1293    4.2002   18.2267 O   0  0  0  0  0  0  0  0  0  0  0  0
   48.0179    5.9900   19.9365 O   0  0  0  0  0  0  0  0  0  0  0  0
   49.2843    4.6017   18.3950 C   0  0  2  0  0  0  0  0  0  0  0  0
   48.6815    4.8839   17.0378 C   0  0  0  0  0  0  0  0  0  0  0  0
   48.4820    3.5417   17.6691 C   0  0  1  0  0  0  0  0  0  0  0  0
   48.7181    5.2766   19.6220 C   0  0  0  0  0  0  0  0  0  0  0  0
   49.1497    2.3759   17.0904 N   0  0  0  0  0  0  0  0  0  0  0  0
   48.2507    4.5329   20.7189 C   0  0  0  0  0  0  0  0  0  0  0  0
   48.6686    6.6776   19.7230 C   0  0  0  0  0  0  0  0  0  0  0  0
   48.1591    7.3092   20.8606 C   0  0  0  0  0  0  0  0  0  0  0  0
   47.7383    5.1582   21.8588 C   0  0  0  0  0  0  0  0  0  0  0  0
   47.6917    6.5477   21.9282 C   0  0  0  0  0  0  0  0  0  0  0  0
   48.9048    6.9209   19.5664 H   0  0  0  0  0  0  0  0  0  0  0  0
   46.6462    5.3164   20.9960 H   0  0  0  0  0  0  0  0  0  0  0  0
   47.1348    7.0341   21.3100 H   0  0  0  0  0  0  0  0  0  0  0  0
   48.9094    4.5093   21.5592 H   0  0  0  0  0  0  0  0  0  0  0  0
   49.5748    7.4067   21.9301 H   0  0  0  0  0  0  0  0  0  0  0  0
   50.6624    6.1981   22.0033 H   0  0  0  0  0  0  0  0  0  0  0  0
   50.5674    4.4369   18.9571 H   0  0  0  0  0  0  0  0  0  0  0  0
   46.3468    5.0882   18.4268 H   0  0  0  0  0  0  0  0  0  0  0  0
   46.2982    3.3363   16.6933 H   0  0  0  0  0  0  0  0  0  0  0  0
   50.5138    2.6927   17.2120 H   0  0  0  0  0  0  0  0  0  0  0  0
   48.3785    2.1286   16.0771 H   0  0  0  0  0  0  0  0  0  0  0  0
   48.5019    4.7020   17.4723 H   0  0  0  0  0  0  0  0  0  0  0  0
   47.2587    5.6776   20.4707 H   0  0  0  0  0  0  0  0  0  0  0  0
   50.3647    4.4721   18.4123 H   0  0  0  0  0  0  0  0  0  0  0  0
   49.3513    4.9679   16.1910 H   0  0  0  0  0  0  0  0  0  0  0  0
   47.8131    5.5282   16.9697 H   0  0  0  0  0  0  0  0  0  0  0  0
   47.4740    3.3377   18.0252 H   0  0  0  0  0  0  0  0  0  0  0  0
   50.1466    2.5410   16.9536 H   0  0  0  0  0  0  0  0  0  0  0  0
   49.0794    1.5746   17.7198 H   0  0  0  0  0  0  0  0  0  0  0  0
   48.2848    3.4458   20.6849 H   0  0  0  0  0  0  0  0  0  0  0  0
   49.0352    7.2873   18.8996 H   0  0  0  0  0  0  0  0  0  0  0  0
   48.1300    8.3943   20.9107 H   0  0  0  0  0  0  0  0  0  0  0  0
   47.3798    4.5584   22.6922 H   0  0  0  0  0  0  0  0  0  0  0  0
   47.2937    7.0361   22.8136 H   0  0  0  0  0  0  0  0  0  0  0  0
  2  1  1  0
  3  1  1  0
  1  4  1  0
  3  5  1  0
  6  4  2  0
  7  4  1  0
  8  7  2  0
  9  6  1  0
 10  9  2  0
  3  2  1  0
  8 10  1  0
 12 11  2  0
 13 11  2  0
 14 11  1  0
 15 11  1  0
 17 16  1  0
 18 16  1  0
 16 19  1  0
 18 20  1  0
 21 19  2  0
 22 19  1  0
 23 22  2  0
 24 21  1  0
 25 24  2  0
 18 17  1  0
 23 25  1  0
  1 26  1  6
  2 27  1  0
  2 28  1  0
  3 29  1  1
  5 30  1  0
  5 31  1  0
  6 32  1  0
  7 33  1  0
  8 34  1  0
  9 35  1  0
 10 36  1  0
 14 37  1  0
 15 38  1  0
 16 39  1  6
 17 40  1  0
 17 41  1  0
 18 42  1  1
 20 43  1  0
 20 44  1  0
 21 45  1  0
 22 46  1  0
 23 47  1  0
 24 48  1  0
 25 49  1  0
M  END
> <Uni-Dock RESULT> 
ENERGY=   -4.749  LOWER_BOUND=    8.099  UPPER_BOUND=    9.939
INTER + INTRA:          -4.749
INTER:                  -4.749
INTRA:                   0.000
UNBOUND:                 0.000

$$$$

     RDKit          3D

 49 50  0  0  0  0  0  0  0  0999 V2000
   48.0149    6.1525   19.4308 C   0  0  1  0  0  0  0  0  0  0  0  0
   49.0623    7.2265   19.6195 C   0  0  0  0  0  0  0  0  0  0  0  0
   47.8321    7.5282   18.8203 C   0  0  2  0  0  0  0  0  0  0  0  0
   48.2662    4.9721   18.5217 C   0  0  0  0  0  0  0  0  0  0  0  0
   46.8315    8.4471   19.3634 N   0  0  0  0  0  0  0  0  0  0  0  0
   47.2683    4.5191   17.6410 C   0  0  0  0  0  0  0  0  0  0  0  0
   49.4826    4.2680   18.5357 C   0  0  0  0  0  0  0  0  0  0  0  0
   49.7013    3.1738   17.6939 C   0  0  0  0  0  0  0  0  0  0  0  0
   47.4789    3.4230   16.8002 C   0  0  0  0  0  0  0  0  0  0  0  0
   48.6983    2.7522   16.8246 C   0  0  0  0  0  0  0  0  0  0  0  0
   47.9066    5.6481   18.1611 S   0  0  0  0  0  0  0  0  0  0  0  0
   48.3543    6.5738   17.1505 O   0  0  0  0  0  0  0  0  0  0  0  0
   46.5269    5.2833   18.3554 O   0  0  0  0  0  0  0  0  0  0  0  0
   48.7211    4.2764   17.9900 O   0  0  0  0  0  0  0  0  0  0  0  0
   48.4902    6.1821   19.5567 O   0  0  0  0  0  0  0  0  0  0  0  0
   47.5115    4.4908   18.1112 C   0  0  2  0  0  0  0  0  0  0  0  0
   48.0050    3.1751   18.6683 C   0  0  0  0  0  0  0  0  0  0  0  0
   48.5035    3.6465   17.3383 C   0  0  1  0  0  0  0  0  0  0  0  0
   47.9513    5.7875   18.7492 C   0  0  0  0  0  0  0  0  0  0  0  0
   48.0865    2.9370   16.1289 N   0  0  0  0  0  0  0  0  0  0  0  0
   48.5951    6.7905   18.0048 C   0  0  0  0  0  0  0  0  0  0  0  0
   47.7020    6.0501   20.1073 C   0  0  0  0  0  0  0  0  0  0  0  0
   48.0934    7.2529   20.7012 C   0  0  0  0  0  0  0  0  0  0  0  0
   48.9906    7.9949   18.5929 C   0  0  0  0  0  0  0  0  0  0  0  0
   48.7402    8.2248   19.9428 C   0  0  0  0  0  0  0  0  0  0  0  0
   47.4153    5.9229   20.3100 H   0  0  0  0  0  0  0  0  0  0  0  0
   50.0010    7.1556   19.0796 H   0  0  0  0  0  0  0  0  0  0  0  0
   49.1640    7.6669   20.6046 H   0  0  0  0  0  0  0  0  0  0  0  0
   47.9784    7.6228   17.7447 H   0  0  0  0  0  0  0  0  0  0  0  0
   46.7175    8.3274   20.3694 H   0  0  0  0  0  0  0  0  0  0  0  0
   45.9164    8.2608   18.9543 H   0  0  0  0  0  0  0  0  0  0  0  0
   46.3084    5.0309   17.6109 H   0  0  0  0  0  0  0  0  0  0  0  0
   50.2765    4.5770   19.2132 H   0  0  0  0  0  0  0  0  0  0  0  0
   50.6548    2.6521   17.7206 H   0  0  0  0  0  0  0  0  0  0  0  0
   46.6897    3.0954   16.1282 H   0  0  0  0  0  0  0  0  0  0  0  0
   48.8665    1.9014   16.1701 H   0  0  0  0  0  0  0  0  0  0  0  0
   48.2304    3.5855   18.4816 H   0  0  0  0  0  0  0  0  0  0  0  0
   49.3121    6.6760   19.3570 H   0  0  0  0  0  0  0  0  0  0  0  0
   46.4849    4.4937   17.7504 H   0  0  0  0  0  0  0  0  0  0  0  0
   47.3112    2.3442   18.7011 H   0  0  0  0  0  0  0  0  0  0  0  0
   48.7132    3.1816   19.4883 H   0  0  0  0  0  0  0  0  0  0  0  0
   49.5406    3.9760   17.3177 H   0  0  0  0  0  0  0  0  0  0  0  0
   47.0741    2.8209   16.0895 H   0  0  0  0  0  0  0  0  0  0  0  0
   48.3429    3.4692   15.2958 H   0  0  0  0  0  0  0  0  0  0  0  0
   48.7938    6.6307   16.9469 H   0  0  0  0  0  0  0  0  0  0  0  0
   47.1924    5.3032   20.7126 H   0  0  0  0  0  0  0  0  0  0  0  0
   47.8905    7.4285   21.7542 H   0  0  0  0  0  0  0  0  0  0  0  0
   49.4905    8.7529   17.9943 H   0  0  0  0  0  0  0  0  0  0  0  0
   49.0468    9.1606   20.4022 H   0  0  0  0  0  0  0  0  0  0  0  0
  2  1  1  0
  3  1  1  0
  1  4  1  0
  3  5  1  0
  6  4  2  0
  7  4  1  0
  8  7  2  0
  9  6  1  0
 10  9  2  0
  3  2  1  0
  8 10  1  0
 12 11  2  0
 13 11  2  0
 14 11  1  0
 15 11  1  0
 17 16  1  0
 18 16  1  0
 16 19  1  0
 18 20  1  0
 21 19  2  0
 22 19  1  0
 23 22  2  0
 24 21  1  0
 25 24  2  0
 18 17  1  0
 23 25  1  0
  1 26  1  6
  2 27  1  0
  2 28  1  0
  3 29  1  1
  5 30  1  0
  5 31  1  0
  6 32  1  0
  7 33  1  0
  8 34  1  0
  9 35  1  0
 10 36  1  0
 14 37  1  0
 15 38  1  0
 16 39  1  6
 17 40  1  0
 17 41  1  0
 18 42  1  1
 20 43  1  0
 20 44  1  0
 21 45  1  0
 22 46  1  0
 23 47  1  0
 24 48  1  0
 25 49  1  0
M  END
> <Uni-Dock RESULT> 
ENERGY=   -4.539  LOWER_BOUND=    7.612  UPPER_BOUND=    9.164
INTER + INTRA:          -4.539
INTER:                  -4.539
INTRA:                   0.000
UNBOUND:                 0.000

$$$$
