
     RDKit          3D

 49 50  0  0  0  0  0  0  0  0999 V2000
   43.3615    4.0408   10.5886 C   0  0  1  0  0  0  0  0  0  0  0  0
   43.4255    3.6733   12.0531 C   0  0  0  0  0  0  0  0  0  0  0  0
   43.6585    5.0914   11.6367 C   0  0  2  0  0  0  0  0  0  0  0  0
   44.4498    3.5895    9.6432 C   0  0  0  0  0  0  0  0  0  0  0  0
   42.6413    6.0939   11.9532 N   0  0  0  0  0  0  0  0  0  0  0  0
   44.8035    2.2356    9.5270 C   0  0  0  0  0  0  0  0  0  0  0  0
   45.1228    4.5052    8.8169 C   0  0  0  0  0  0  0  0  0  0  0  0
   46.1212    4.0918    7.9307 C   0  0  0  0  0  0  0  0  0  0  0  0
   45.8014    1.8149    8.6436 C   0  0  0  0  0  0  0  0  0  0  0  0
   46.4628    2.7451    7.8478 C   0  0  0  0  0  0  0  0  0  0  0  0
   44.8922    4.0444   10.2463 S   0  0  0  0  0  0  0  0  0  0  0  0
   45.6064    5.0972    9.5690 O   0  0  0  0  0  0  0  0  0  0  0  0
   45.3793    3.3714   11.4235 O   0  0  0  0  0  0  0  0  0  0  0  0
   43.4252    4.5833   10.6083 O   0  0  0  0  0  0  0  0  0  0  0  0
   44.5499    2.9390    9.1346 O   0  0  0  0  0  0  0  0  0  0  0  0
   44.4999    4.2030   11.2466 C   0  0  2  0  0  0  0  0  0  0  0  0
   43.8350    3.1950   12.1530 C   0  0  0  0  0  0  0  0  0  0  0  0
   43.0436    4.3585   11.6307 C   0  0  1  0  0  0  0  0  0  0  0  0
   44.8650    3.9045    9.8026 C   0  0  0  0  0  0  0  0  0  0  0  0
   42.6346    5.4174   12.5538 N   0  0  0  0  0  0  0  0  0  0  0  0
   45.7644    4.7506    9.1247 C   0  0  0  0  0  0  0  0  0  0  0  0
   44.3522    2.8164    9.0723 C   0  0  0  0  0  0  0  0  0  0  0  0
   44.7196    2.5821    7.7427 C   0  0  0  0  0  0  0  0  0  0  0  0
   46.1379    4.5228    7.7965 C   0  0  0  0  0  0  0  0  0  0  0  0
   45.6148    3.4357    7.1054 C   0  0  0  0  0  0  0  0  0  0  0  0
   42.3638    4.0637   10.1542 H   0  0  0  0  0  0  0  0  0  0  0  0
   42.4925    3.4250   12.5463 H   0  0  0  0  0  0  0  0  0  0  0  0
   44.2781    3.1134   12.4184 H   0  0  0  0  0  0  0  0  0  0  0  0
   44.6844    5.4486   11.7105 H   0  0  0  0  0  0  0  0  0  0  0  0
   42.7205    6.8944   11.3263 H   0  0  0  0  0  0  0  0  0  0  0  0
   42.7802    6.4593   12.8949 H   0  0  0  0  0  0  0  0  0  0  0  0
   44.2933    1.4949   10.1398 H   0  0  0  0  0  0  0  0  0  0  0  0
   44.8594    5.5603    8.8612 H   0  0  0  0  0  0  0  0  0  0  0  0
   46.6261    4.8217    7.3033 H   0  0  0  0  0  0  0  0  0  0  0  0
   46.0579    0.7613    8.5777 H   0  0  0  0  0  0  0  0  0  0  0  0
   47.2374    2.4206    7.1585 H   0  0  0  0  0  0  0  0  0  0  0  0
   43.0752    4.0091   11.3206 H   0  0  0  0  0  0  0  0  0  0  0  0
   44.4858    3.4039    8.2750 H   0  0  0  0  0  0  0  0  0  0  0  0
   45.2063    4.8560   11.7597 H   0  0  0  0  0  0  0  0  0  0  0  0
   44.1220    3.1915   13.1993 H   0  0  0  0  0  0  0  0  0  0  0  0
   43.5889    2.2076   11.7841 H   0  0  0  0  0  0  0  0  0  0  0  0
   42.2969    4.1280   10.8721 H   0  0  0  0  0  0  0  0  0  0  0  0
   43.3551    5.6104   13.2485 H   0  0  0  0  0  0  0  0  0  0  0  0
   42.4895    6.2913   12.0481 H   0  0  0  0  0  0  0  0  0  0  0  0
   46.1861    5.6101    9.6427 H   0  0  0  0  0  0  0  0  0  0  0  0
   43.6447    2.1319    9.5346 H   0  0  0  0  0  0  0  0  0  0  0  0
   44.3026    1.7319    7.2084 H   0  0  0  0  0  0  0  0  0  0  0  0
   46.8365    5.1967    7.3059 H   0  0  0  0  0  0  0  0  0  0  0  0
   45.9011    3.2548    6.0728 H   0  0  0  0  0  0  0  0  0  0  0  0
  2  1  1  0
  3  1  1  0
  1  4  1  0
  3  5  1  0
  6  4  2  0
  7  4  1  0
  8  7  2  0
  9  6  1  0
 10  9  2  0
  3  2  1  0
  8 10  1  0
 12 11  2  0
 13 11  2  0
 14 11  1  0
 15 11  1  0
 17 16  1  0
 18 16  1  0
 16 19  1  0
 18 20  1  0
 21 19  2  0
 22 19  1  0
 23 22  2  0
 24 21  1  0
 25 24  2  0
 18 17  1  0
 23 25  1  0
  1 26  1  6
  2 27  1  0
  2 28  1  0
  3 29  1  1
  5 30  1  0
  5 31  1  0
  6 32  1  0
  7 33  1  0
  8 34  1  0
  9 35  1  0
 10 36  1  0
 14 37  1  0
 15 38  1  0
 16 39  1  1
 17 40  1  0
 17 41  1  0
 18 42  1  6
 20 43  1  0
 20 44  1  0
 21 45  1  0
 22 46  1  0
 23 47  1  0
 24 48  1  0
 25 49  1  0
M  END
> <Uni-Dock RESULT> 
ENERGY=   -7.318  LOWER_BOUND=    0.000  UPPER_BOUND=    0.000
INTER + INTRA:          -7.318
INTER:                  -7.318
INTRA:                   0.000
UNBOUND:                 0.000

$$$$

     RDKit          3D

 49 50  0  0  0  0  0  0  0  0999 V2000
   45.5961    3.6227    9.4584 C   0  0  1  0  0  0  0  0  0  0  0  0
   44.2137    4.2294    9.5268 C   0  0  0  0  0  0  0  0  0  0  0  0
   44.4804    2.9214   10.2026 C   0  0  2  0  0  0  0  0  0  0  0  0
   46.1119    3.0508    8.1588 C   0  0  0  0  0  0  0  0  0  0  0  0
   44.5121    2.8782   11.6643 N   0  0  0  0  0  0  0  0  0  0  0  0
   46.1359    3.8152    6.9811 C   0  0  0  0  0  0  0  0  0  0  0  0
   46.6223    1.7435    8.0898 C   0  0  0  0  0  0  0  0  0  0  0  0
   47.1132    1.2139    6.8934 C   0  0  0  0  0  0  0  0  0  0  0  0
   46.6245    3.2919    5.7809 C   0  0  0  0  0  0  0  0  0  0  0  0
   47.1101    1.9887    5.7373 C   0  0  0  0  0  0  0  0  0  0  0  0
   45.3789    2.5923    8.2958 S   0  0  0  0  0  0  0  0  0  0  0  0
   45.7315    1.1951    8.3252 O   0  0  0  0  0  0  0  0  0  0  0  0
   44.1258    3.0943    7.7923 O   0  0  0  0  0  0  0  0  0  0  0  0
   45.5395    3.1833    9.7785 O   0  0  0  0  0  0  0  0  0  0  0  0
   46.5717    3.3461    7.5317 O   0  0  0  0  0  0  0  0  0  0  0  0
   44.5759    2.9688    8.9227 C   0  0  2  0  0  0  0  0  0  0  0  0
   43.9903    4.3603    8.9443 C   0  0  0  0  0  0  0  0  0  0  0  0
   44.7231    3.8452   10.1485 C   0  0  1  0  0  0  0  0  0  0  0  0
   45.8078    2.6009    8.1137 C   0  0  0  0  0  0  0  0  0  0  0  0
   43.9720    3.5400   11.3665 N   0  0  0  0  0  0  0  0  0  0  0  0
   46.1019    1.2441    7.8748 C   0  0  0  0  0  0  0  0  0  0  0  0
   46.7030    3.5434    7.5747 C   0  0  0  0  0  0  0  0  0  0  0  0
   47.8252    3.1551    6.8346 C   0  0  0  0  0  0  0  0  0  0  0  0
   47.2205    0.8476    7.1352 C   0  0  0  0  0  0  0  0  0  0  0  0
   48.0825    1.8057    6.6136 C   0  0  0  0  0  0  0  0  0  0  0  0
   46.3522    4.1084   10.0722 H   0  0  0  0  0  0  0  0  0  0  0  0
   44.0869    5.1135   10.1415 H   0  0  0  0  0  0  0  0  0  0  0  0
   43.5888    4.2163    8.6419 H   0  0  0  0  0  0  0  0  0  0  0  0
   44.0407    2.0428    9.7332 H   0  0  0  0  0  0  0  0  0  0  0  0
   45.0476    2.0725   11.9871 H   0  0  0  0  0  0  0  0  0  0  0  0
   43.5713    2.7589   12.0392 H   0  0  0  0  0  0  0  0  0  0  0  0
   45.7630    4.8375    6.9992 H   0  0  0  0  0  0  0  0  0  0  0  0
   46.6427    1.1286    8.9876 H   0  0  0  0  0  0  0  0  0  0  0  0
   47.5019    0.1992    6.8684 H   0  0  0  0  0  0  0  0  0  0  0  0
   46.6269    3.9045    4.8837 H   0  0  0  0  0  0  0  0  0  0  0  0
   47.4927    1.5800    4.8061 H   0  0  0  0  0  0  0  0  0  0  0  0
   45.0125    4.0080    9.8184 H   0  0  0  0  0  0  0  0  0  0  0  0
   47.3852    2.8201    7.6758 H   0  0  0  0  0  0  0  0  0  0  0  0
   43.8287    2.1771    8.9828 H   0  0  0  0  0  0  0  0  0  0  0  0
   42.9105    4.4521    8.9948 H   0  0  0  0  0  0  0  0  0  0  0  0
   44.4507    5.1555    8.3719 H   0  0  0  0  0  0  0  0  0  0  0  0
   45.7020    4.2838   10.3375 H   0  0  0  0  0  0  0  0  0  0  0  0
   43.0632    3.1293   11.1554 H   0  0  0  0  0  0  0  0  0  0  0  0
   44.4708    2.8481   11.9260 H   0  0  0  0  0  0  0  0  0  0  0  0
   45.4440    0.4744    8.2745 H   0  0  0  0  0  0  0  0  0  0  0  0
   46.5387    4.6068    7.7327 H   0  0  0  0  0  0  0  0  0  0  0  0
   48.4964    3.9109    6.4339 H   0  0  0  0  0  0  0  0  0  0  0  0
   47.4146   -0.2096    6.9694 H   0  0  0  0  0  0  0  0  0  0  0  0
   48.9536    1.5027    6.0389 H   0  0  0  0  0  0  0  0  0  0  0  0
  2  1  1  0
  3  1  1  0
  1  4  1  0
  3  5  1  0
  6  4  2  0
  7  4  1  0
  8  7  2  0
  9  6  1  0
 10  9  2  0
  3  2  1  0
  8 10  1  0
 12 11  2  0
 13 11  2  0
 14 11  1  0
 15 11  1  0
 17 16  1  0
 18 16  1  0
 16 19  1  0
 18 20  1  0
 21 19  2  0
 22 19  1  0
 23 22  2  0
 24 21  1  0
 25 24  2  0
 18 17  1  0
 23 25  1  0
  1 26  1  6
  2 27  1  0
  2 28  1  0
  3 29  1  1
  5 30  1  0
  5 31  1  0
  6 32  1  0
  7 33  1  0
  8 34  1  0
  9 35  1  0
 10 36  1  0
 14 37  1  0
 15 38  1  0
 16 39  1  1
 17 40  1  0
 17 41  1  0
 18 42  1  6
 20 43  1  0
 20 44  1  0
 21 45  1  0
 22 46  1  0
 23 47  1  0
 24 48  1  0
 25 49  1  0
M  END
> <Uni-Dock RESULT> 
ENERGY=   -7.294  LOWER_BOUND=    1.688  UPPER_BOUND=    3.055
INTER + INTRA:          -7.294
INTER:                  -7.294
INTRA:                   0.000
UNBOUND:                 0.000

$$$$

     RDKit          3D

 49 50  0  0  0  0  0  0  0  0999 V2000
   45.0440    7.1973   12.7999 C   0  0  1  0  0  0  0  0  0  0  0  0
   46.4016    7.8020   13.0741 C   0  0  0  0  0  0  0  0  0  0  0  0
   45.6184    8.2552   11.8825 C   0  0  2  0  0  0  0  0  0  0  0  0
   44.9303    5.7679   12.3248 C   0  0  0  0  0  0  0  0  0  0  0  0
   45.0405    9.5990   11.8899 N   0  0  0  0  0  0  0  0  0  0  0  0
   45.5147    4.7102   13.0400 C   0  0  0  0  0  0  0  0  0  0  0  0
   44.2022    5.4403   11.1686 C   0  0  0  0  0  0  0  0  0  0  0  0
   44.0823    4.1183   10.7317 C   0  0  0  0  0  0  0  0  0  0  0  0
   45.3997    3.3858   12.6086 C   0  0  0  0  0  0  0  0  0  0  0  0
   44.6856    3.0910   11.4514 C   0  0  0  0  0  0  0  0  0  0  0  0
   45.4380    6.1361   11.7142 S   0  0  0  0  0  0  0  0  0  0  0  0
   44.7959    5.9523   10.4369 O   0  0  0  0  0  0  0  0  0  0  0  0
   46.8666    6.1560   11.8997 O   0  0  0  0  0  0  0  0  0  0  0  0
   44.8783    7.4896   12.3687 O   0  0  0  0  0  0  0  0  0  0  0  0
   44.8133    5.0347   12.6997 O   0  0  0  0  0  0  0  0  0  0  0  0
   46.0152    7.0342   11.9138 C   0  0  2  0  0  0  0  0  0  0  0  0
   46.8474    7.3502   13.1333 C   0  0  0  0  0  0  0  0  0  0  0  0
   45.6265    8.1707   12.8355 C   0  0  1  0  0  0  0  0  0  0  0  0
   45.1203    5.8107   11.8158 C   0  0  0  0  0  0  0  0  0  0  0  0
   45.7860    9.5587   12.4010 N   0  0  0  0  0  0  0  0  0  0  0  0
   44.6390    5.4014   10.5568 C   0  0  0  0  0  0  0  0  0  0  0  0
   44.7232    5.0383   12.9231 C   0  0  0  0  0  0  0  0  0  0  0  0
   43.8971    3.9177   12.7822 C   0  0  0  0  0  0  0  0  0  0  0  0
   43.8143    4.2820   10.4071 C   0  0  0  0  0  0  0  0  0  0  0  0
   43.4440    3.5389   11.5223 C   0  0  0  0  0  0  0  0  0  0  0  0
   44.2444    7.5198   13.4641 H   0  0  0  0  0  0  0  0  0  0  0  0
   46.4873    8.4714   13.9227 H   0  0  0  0  0  0  0  0  0  0  0  0
   47.2890    7.2076   12.8921 H   0  0  0  0  0  0  0  0  0  0  0  0
   45.9912    7.9282   10.9132 H   0  0  0  0  0  0  0  0  0  0  0  0
   44.2577    9.6555   11.2387 H   0  0  0  0  0  0  0  0  0  0  0  0
   45.7239   10.2840   11.5684 H   0  0  0  0  0  0  0  0  0  0  0  0
   46.0736    4.9235   13.9491 H   0  0  0  0  0  0  0  0  0  0  0  0
   43.7146    6.2306   10.6010 H   0  0  0  0  0  0  0  0  0  0  0  0
   43.5135    3.8932    9.8334 H   0  0  0  0  0  0  0  0  0  0  0  0
   45.8661    2.5875   13.1792 H   0  0  0  0  0  0  0  0  0  0  0  0
   44.5926    2.0621   11.1149 H   0  0  0  0  0  0  0  0  0  0  0  0
   45.5239    7.7678   13.0509 H   0  0  0  0  0  0  0  0  0  0  0  0
   43.9084    4.8402   12.3794 H   0  0  0  0  0  0  0  0  0  0  0  0
   46.4895    7.3165   10.9735 H   0  0  0  0  0  0  0  0  0  0  0  0
   47.8233    7.7972   12.9756 H   0  0  0  0  0  0  0  0  0  0  0  0
   46.8217    6.6970   13.9962 H   0  0  0  0  0  0  0  0  0  0  0  0
   44.7722    8.0143   13.4927 H   0  0  0  0  0  0  0  0  0  0  0  0
   46.5914    9.6706   11.7863 H   0  0  0  0  0  0  0  0  0  0  0  0
   44.9745    9.8553   11.8587 H   0  0  0  0  0  0  0  0  0  0  0  0
   44.9123    5.9678    9.6683 H   0  0  0  0  0  0  0  0  0  0  0  0
   45.0515    5.3077   13.9243 H   0  0  0  0  0  0  0  0  0  0  0  0
   43.6091    3.3446   13.6602 H   0  0  0  0  0  0  0  0  0  0  0  0
   43.4632    3.9949    9.4186 H   0  0  0  0  0  0  0  0  0  0  0  0
   42.8026    2.6687   11.4114 H   0  0  0  0  0  0  0  0  0  0  0  0
  2  1  1  0
  3  1  1  0
  1  4  1  0
  3  5  1  0
  6  4  2  0
  7  4  1  0
  8  7  2  0
  9  6  1  0
 10  9  2  0
  3  2  1  0
  8 10  1  0
 12 11  2  0
 13 11  2  0
 14 11  1  0
 15 11  1  0
 17 16  1  0
 18 16  1  0
 16 19  1  0
 18 20  1  0
 21 19  2  0
 22 19  1  0
 23 22  2  0
 24 21  1  0
 25 24  2  0
 18 17  1  0
 23 25  1  0
  1 26  1  6
  2 27  1  0
  2 28  1  0
  3 29  1  1
  5 30  1  0
  5 31  1  0
  6 32  1  0
  7 33  1  0
  8 34  1  0
  9 35  1  0
 10 36  1  0
 14 37  1  0
 15 38  1  0
 16 39  1  1
 17 40  1  0
 17 41  1  0
 18 42  1  6
 20 43  1  0
 20 44  1  0
 21 45  1  0
 22 46  1  0
 23 47  1  0
 24 48  1  0
 25 49  1  0
M  END
> <Uni-Dock RESULT> 
ENERGY=   -5.870  LOWER_BOUND=    2.659  UPPER_BOUND=    3.976
INTER + INTRA:          -5.870
INTER:                  -5.870
INTRA:                   0.000
UNBOUND:                 0.000

$$$$

     RDKit          3D

 49 50  0  0  0  0  0  0  0  0999 V2000
   45.5678    5.4740   11.4053 C   0  0  1  0  0  0  0  0  0  0  0  0
   45.0064    4.2256   12.0458 C   0  0  0  0  0  0  0  0  0  0  0  0
   44.0726    5.2712   11.5228 C   0  0  2  0  0  0  0  0  0  0  0  0
   46.2562    6.5190   12.2515 C   0  0  0  0  0  0  0  0  0  0  0  0
   43.2933    4.9803   10.3196 N   0  0  0  0  0  0  0  0  0  0  0  0
   47.3299    6.1878   13.0937 C   0  0  0  0  0  0  0  0  0  0  0  0
   45.8709    7.8692   12.1980 C   0  0  0  0  0  0  0  0  0  0  0  0
   46.5128    8.8424   12.9685 C   0  0  0  0  0  0  0  0  0  0  0  0
   47.9760    7.1556   13.8677 C   0  0  0  0  0  0  0  0  0  0  0  0
   47.5640    8.4833   13.8070 C   0  0  0  0  0  0  0  0  0  0  0  0
   45.4616    6.4665   12.6152 S   0  0  0  0  0  0  0  0  0  0  0  0
   44.8738    7.7821   12.5827 O   0  0  0  0  0  0  0  0  0  0  0  0
   45.2252    5.5065   13.6633 O   0  0  0  0  0  0  0  0  0  0  0  0
   45.1128    5.7251   11.2360 O   0  0  0  0  0  0  0  0  0  0  0  0
   47.0457    6.6726   12.4634 O   0  0  0  0  0  0  0  0  0  0  0  0
   44.8380    5.5841   12.5055 C   0  0  2  0  0  0  0  0  0  0  0  0
   45.2490    4.1365   12.6285 C   0  0  0  0  0  0  0  0  0  0  0  0
   44.7792    4.6642   11.3044 C   0  0  1  0  0  0  0  0  0  0  0  0
   45.8329    6.7319   12.5208 C   0  0  0  0  0  0  0  0  0  0  0  0
   43.4875    4.2240   10.7766 N   0  0  0  0  0  0  0  0  0  0  0  0
   45.3735    8.0463   12.7344 C   0  0  0  0  0  0  0  0  0  0  0  0
   47.2177    6.5727   12.3275 C   0  0  0  0  0  0  0  0  0  0  0  0
   48.0955    7.6621   12.3512 C   0  0  0  0  0  0  0  0  0  0  0  0
   46.2440    9.1403   12.7609 C   0  0  0  0  0  0  0  0  0  0  0  0
   47.6075    8.9467   12.5699 C   0  0  0  0  0  0  0  0  0  0  0  0
   45.9945    5.3406   10.4130 H   0  0  0  0  0  0  0  0  0  0  0  0
   45.1034    3.2962   11.4960 H   0  0  0  0  0  0  0  0  0  0  0  0
   45.0747    4.1094   13.1208 H   0  0  0  0  0  0  0  0  0  0  0  0
   43.5453    5.8589   12.2726 H   0  0  0  0  0  0  0  0  0  0  0  0
   43.0014    5.8450    9.8645 H   0  0  0  0  0  0  0  0  0  0  0  0
   42.4349    4.4856   10.5604 H   0  0  0  0  0  0  0  0  0  0  0  0
   47.6667    5.1545   13.1500 H   0  0  0  0  0  0  0  0  0  0  0  0
   45.0584    8.1684   11.5386 H   0  0  0  0  0  0  0  0  0  0  0  0
   46.1940    9.8797   12.9080 H   0  0  0  0  0  0  0  0  0  0  0  0
   48.8012    6.8703   14.5142 H   0  0  0  0  0  0  0  0  0  0  0  0
   48.0660    9.2382   14.4059 H   0  0  0  0  0  0  0  0  0  0  0  0
   45.2288    4.7644   11.3883 H   0  0  0  0  0  0  0  0  0  0  0  0
   47.1824    7.5011   11.9592 H   0  0  0  0  0  0  0  0  0  0  0  0
   43.8859    5.8124   12.9852 H   0  0  0  0  0  0  0  0  0  0  0  0
   44.5948    3.4721   13.1832 H   0  0  0  0  0  0  0  0  0  0  0  0
   46.2940    3.8720   12.7274 H   0  0  0  0  0  0  0  0  0  0  0  0
   45.5443    4.7880   10.5392 H   0  0  0  0  0  0  0  0  0  0  0  0
   42.7940    4.1204   11.5164 H   0  0  0  0  0  0  0  0  0  0  0  0
   43.1116    4.9212   10.1338 H   0  0  0  0  0  0  0  0  0  0  0  0
   44.3101    8.2249   12.8841 H   0  0  0  0  0  0  0  0  0  0  0  0
   47.6350    5.5848   12.1467 H   0  0  0  0  0  0  0  0  0  0  0  0
   49.1598    7.5022   12.1968 H   0  0  0  0  0  0  0  0  0  0  0  0
   45.8532   10.1410   12.9304 H   0  0  0  0  0  0  0  0  0  0  0  0
   48.2881    9.7936   12.5887 H   0  0  0  0  0  0  0  0  0  0  0  0
  2  1  1  0
  3  1  1  0
  1  4  1  0
  3  5  1  0
  6  4  2  0
  7  4  1  0
  8  7  2  0
  9  6  1  0
 10  9  2  0
  3  2  1  0
  8 10  1  0
 12 11  2  0
 13 11  2  0
 14 11  1  0
 15 11  1  0
 17 16  1  0
 18 16  1  0
 16 19  1  0
 18 20  1  0
 21 19  2  0
 22 19  1  0
 23 22  2  0
 24 21  1  0
 25 24  2  0
 18 17  1  0
 23 25  1  0
  1 26  1  6
  2 27  1  0
  2 28  1  0
  3 29  1  1
  5 30  1  0
  5 31  1  0
  6 32  1  0
  7 33  1  0
  8 34  1  0
  9 35  1  0
 10 36  1  0
 14 37  1  0
 15 38  1  0
 16 39  1  1
 17 40  1  0
 17 41  1  0
 18 42  1  6
 20 43  1  0
 20 44  1  0
 21 45  1  0
 22 46  1  0
 23 47  1  0
 24 48  1  0
 25 49  1  0
M  END
> <Uni-Dock RESULT> 
ENERGY=   -5.523  LOWER_BOUND=    3.513  UPPER_BOUND=    4.903
INTER + INTRA:          -5.523
INTER:                  -5.523
INTRA:                   0.000
UNBOUND:                 0.000

$$$$

     RDKit          3D

 49 50  0  0  0  0  0  0  0  0999 V2000
   44.2075    6.1256   12.8813 C   0  0  1  0  0  0  0  0  0  0  0  0
   43.2557    5.8322   11.7448 C   0  0  0  0  0  0  0  0  0  0  0  0
   44.1418    4.7447   12.2654 C   0  0  2  0  0  0  0  0  0  0  0  0
   45.4199    6.9970   12.6520 C   0  0  0  0  0  0  0  0  0  0  0  0
   43.5396    3.6499   13.0259 N   0  0  0  0  0  0  0  0  0  0  0  0
   45.3022    8.2869   12.1096 C   0  0  0  0  0  0  0  0  0  0  0  0
   46.7076    6.5623   13.0087 C   0  0  0  0  0  0  0  0  0  0  0  0
   47.8312    7.3693   12.8113 C   0  0  0  0  0  0  0  0  0  0  0  0
   46.4215    9.0992   11.9085 C   0  0  0  0  0  0  0  0  0  0  0  0
   47.6871    8.6377   12.2567 C   0  0  0  0  0  0  0  0  0  0  0  0
   45.5309    6.3521   12.0705 S   0  0  0  0  0  0  0  0  0  0  0  0
   46.8044    5.7321   12.3369 O   0  0  0  0  0  0  0  0  0  0  0  0
   44.9595    6.4804   10.7541 O   0  0  0  0  0  0  0  0  0  0  0  0
   44.4207    5.6314   12.9768 O   0  0  0  0  0  0  0  0  0  0  0  0
   45.5837    7.8072   12.7450 O   0  0  0  0  0  0  0  0  0  0  0  0
   44.6973    5.7588   11.7063 C   0  0  2  0  0  0  0  0  0  0  0  0
   43.3372    6.2427   11.2640 C   0  0  0  0  0  0  0  0  0  0  0  0
   43.4555    5.3748   12.4828 C   0  0  1  0  0  0  0  0  0  0  0  0
   45.7310    6.6671   12.3497 C   0  0  0  0  0  0  0  0  0  0  0  0
   42.9521    4.0019   12.4347 N   0  0  0  0  0  0  0  0  0  0  0  0
   47.0720    6.2438   12.4323 C   0  0  0  0  0  0  0  0  0  0  0  0
   45.4364    7.9337   12.8875 C   0  0  0  0  0  0  0  0  0  0  0  0
   46.4244    8.7353   13.4700 C   0  0  0  0  0  0  0  0  0  0  0  0
   48.0657    7.0392   13.0115 C   0  0  0  0  0  0  0  0  0  0  0  0
   47.7404    8.2876   13.5301 C   0  0  0  0  0  0  0  0  0  0  0  0
   43.7473    6.2372   13.8613 H   0  0  0  0  0  0  0  0  0  0  0  0
   42.1975    5.7939   11.9777 H   0  0  0  0  0  0  0  0  0  0  0  0
   43.4748    6.2265   10.7598 H   0  0  0  0  0  0  0  0  0  0  0  0
   44.9638    4.4466   11.6165 H   0  0  0  0  0  0  0  0  0  0  0  0
   44.2365    3.2013   13.6202 H   0  0  0  0  0  0  0  0  0  0  0  0
   43.1967    2.9240   12.3973 H   0  0  0  0  0  0  0  0  0  0  0  0
   44.3189    8.6642   11.8353 H   0  0  0  0  0  0  0  0  0  0  0  0
   46.8359    5.5776   13.4543 H   0  0  0  0  0  0  0  0  0  0  0  0
   48.8158    7.0077   13.0960 H   0  0  0  0  0  0  0  0  0  0  0  0
   46.3016   10.0915   11.4827 H   0  0  0  0  0  0  0  0  0  0  0  0
   48.5588    9.2680   12.1036 H   0  0  0  0  0  0  0  0  0  0  0  0
   43.5495    5.8246   12.5729 H   0  0  0  0  0  0  0  0  0  0  0  0
   46.2051    7.7533   13.5001 H   0  0  0  0  0  0  0  0  0  0  0  0
   45.1202    4.9882   11.0613 H   0  0  0  0  0  0  0  0  0  0  0  0
   42.9185    5.8127   10.3603 H   0  0  0  0  0  0  0  0  0  0  0  0
   43.0539    7.2781   11.4040 H   0  0  0  0  0  0  0  0  0  0  0  0
   43.2894    5.8676   13.4397 H   0  0  0  0  0  0  0  0  0  0  0  0
   43.1251    3.5689   11.5283 H   0  0  0  0  0  0  0  0  0  0  0  0
   43.4369    3.4229   13.1206 H   0  0  0  0  0  0  0  0  0  0  0  0
   47.3521    5.2694   12.0359 H   0  0  0  0  0  0  0  0  0  0  0  0
   44.4179    8.3143   12.8652 H   0  0  0  0  0  0  0  0  0  0  0  0
   46.1605    9.7085   13.8768 H   0  0  0  0  0  0  0  0  0  0  0  0
   49.0912    6.6799   13.0560 H   0  0  0  0  0  0  0  0  0  0  0  0
   48.5087    8.9091   13.9821 H   0  0  0  0  0  0  0  0  0  0  0  0
  2  1  1  0
  3  1  1  0
  1  4  1  0
  3  5  1  0
  6  4  2  0
  7  4  1  0
  8  7  2  0
  9  6  1  0
 10  9  2  0
  3  2  1  0
  8 10  1  0
 12 11  2  0
 13 11  2  0
 14 11  1  0
 15 11  1  0
 17 16  1  0
 18 16  1  0
 16 19  1  0
 18 20  1  0
 21 19  2  0
 22 19  1  0
 23 22  2  0
 24 21  1  0
 25 24  2  0
 18 17  1  0
 23 25  1  0
  1 26  1  6
  2 27  1  0
  2 28  1  0
  3 29  1  1
  5 30  1  0
  5 31  1  0
  6 32  1  0
  7 33  1  0
  8 34  1  0
  9 35  1  0
 10 36  1  0
 14 37  1  0
 15 38  1  0
 16 39  1  1
 17 40  1  0
 17 41  1  0
 18 42  1  6
 20 43  1  0
 20 44  1  0
 21 45  1  0
 22 46  1  0
 23 47  1  0
 24 48  1  0
 25 49  1  0
M  END
> <Uni-Dock RESULT> 
ENERGY=   -5.473  LOWER_BOUND=    3.359  UPPER_BOUND=    4.955
INTER + INTRA:          -5.473
INTER:                  -5.473
INTRA:                   0.000
UNBOUND:                 0.000

$$$$

     RDKit          3D

 49 50  0  0  0  0  0  0  0  0999 V2000
   48.3322    4.5273   16.8028 C   0  0  1  0  0  0  0  0  0  0  0  0
   48.0416    3.1425   16.2721 C   0  0  0  0  0  0  0  0  0  0  0  0
   47.0614    4.2468   16.0302 C   0  0  2  0  0  0  0  0  0  0  0  0
   48.2677    4.8019   18.2868 C   0  0  0  0  0  0  0  0  0  0  0  0
   46.9173    4.7751   14.6738 N   0  0  0  0  0  0  0  0  0  0  0  0
   49.0101    4.0416   19.2048 C   0  0  0  0  0  0  0  0  0  0  0  0
   47.4906    5.8540   18.8000 C   0  0  0  0  0  0  0  0  0  0  0  0
   47.4376    6.1211   20.1706 C   0  0  0  0  0  0  0  0  0  0  0  0
   48.9614    4.3024   20.5769 C   0  0  0  0  0  0  0  0  0  0  0  0
   48.1713    5.3410   21.0596 C   0  0  0  0  0  0  0  0  0  0  0  0
   47.4651    4.5006   18.1096 S   0  0  0  0  0  0  0  0  0  0  0  0
   46.5164    5.5060   18.5176 O   0  0  0  0  0  0  0  0  0  0  0  0
   47.2113    3.0838   18.1726 O   0  0  0  0  0  0  0  0  0  0  0  0
   47.9121    4.8130   16.6009 O   0  0  0  0  0  0  0  0  0  0  0  0
   48.8243    4.8088   18.9049 O   0  0  0  0  0  0  0  0  0  0  0  0
   47.2652    3.8771   17.2431 C   0  0  2  0  0  0  0  0  0  0  0  0
   48.0730    2.7066   16.7361 C   0  0  0  0  0  0  0  0  0  0  0  0
   47.9609    3.9481   15.9002 C   0  0  1  0  0  0  0  0  0  0  0  0
   47.7306    4.7765   18.3753 C   0  0  0  0  0  0  0  0  0  0  0  0
   47.1802    3.9095   14.6634 N   0  0  0  0  0  0  0  0  0  0  0  0
   46.8052    5.6265   19.0121 C   0  0  0  0  0  0  0  0  0  0  0  0
   49.0567    4.8260   18.8437 C   0  0  0  0  0  0  0  0  0  0  0  0
   49.4373    5.6715   19.8916 C   0  0  0  0  0  0  0  0  0  0  0  0
   47.1770    6.4734   20.0609 C   0  0  0  0  0  0  0  0  0  0  0  0
   48.4956    6.4945   20.5014 C   0  0  0  0  0  0  0  0  0  0  0  0
   49.1052    5.0801   16.2722 H   0  0  0  0  0  0  0  0  0  0  0  0
   48.6415    2.7912   15.4402 H   0  0  0  0  0  0  0  0  0  0  0  0
   47.7538    2.3624   16.9667 H   0  0  0  0  0  0  0  0  0  0  0  0
   46.1329    4.1939   16.5964 H   0  0  0  0  0  0  0  0  0  0  0  0
   46.5317    5.7190   14.6964 H   0  0  0  0  0  0  0  0  0  0  0  0
   46.2547    4.2135   14.1397 H   0  0  0  0  0  0  0  0  0  0  0  0
   49.6357    3.2278   18.8431 H   0  0  0  0  0  0  0  0  0  0  0  0
   46.9201    6.4807   18.1171 H   0  0  0  0  0  0  0  0  0  0  0  0
   46.8277    6.9412   20.5405 H   0  0  0  0  0  0  0  0  0  0  0  0
   49.5427    3.6950   21.2650 H   0  0  0  0  0  0  0  0  0  0  0  0
   48.1333    5.5475   22.1257 H   0  0  0  0  0  0  0  0  0  0  0  0
   48.2867    3.9855   16.2344 H   0  0  0  0  0  0  0  0  0  0  0  0
   48.8409    5.7710   19.0869 H   0  0  0  0  0  0  0  0  0  0  0  0
   46.1880    3.7100   17.2199 H   0  0  0  0  0  0  0  0  0  0  0  0
   47.5328    1.8198   16.4218 H   0  0  0  0  0  0  0  0  0  0  0  0
   49.0350    2.4758   17.1754 H   0  0  0  0  0  0  0  0  0  0  0  0
   48.8580    4.5618   15.8314 H   0  0  0  0  0  0  0  0  0  0  0  0
   46.3475    3.3299   14.7617 H   0  0  0  0  0  0  0  0  0  0  0  0
   46.8466    4.8439   14.4261 H   0  0  0  0  0  0  0  0  0  0  0  0
   45.7672    5.6307   18.6842 H   0  0  0  0  0  0  0  0  0  0  0  0
   49.8219    4.2026   18.3871 H   0  0  0  0  0  0  0  0  0  0  0  0
   50.4715    5.6846   20.2272 H   0  0  0  0  0  0  0  0  0  0  0  0
   46.4344    7.1147   20.5299 H   0  0  0  0  0  0  0  0  0  0  0  0
   48.7899    7.1515   21.3155 H   0  0  0  0  0  0  0  0  0  0  0  0
  2  1  1  0
  3  1  1  0
  1  4  1  0
  3  5  1  0
  6  4  2  0
  7  4  1  0
  8  7  2  0
  9  6  1  0
 10  9  2  0
  3  2  1  0
  8 10  1  0
 12 11  2  0
 13 11  2  0
 14 11  1  0
 15 11  1  0
 17 16  1  0
 18 16  1  0
 16 19  1  0
 18 20  1  0
 21 19  2  0
 22 19  1  0
 23 22  2  0
 24 21  1  0
 25 24  2  0
 18 17  1  0
 23 25  1  0
  1 26  1  6
  2 27  1  0
  2 28  1  0
  3 29  1  1
  5 30  1  0
  5 31  1  0
  6 32  1  0
  7 33  1  0
  8 34  1  0
  9 35  1  0
 10 36  1  0
 14 37  1  0
 15 38  1  0
 16 39  1  1
 17 40  1  0
 17 41  1  0
 18 42  1  6
 20 43  1  0
 20 44  1  0
 21 45  1  0
 22 46  1  0
 23 47  1  0
 24 48  1  0
 25 49  1  0
M  END
> <Uni-Dock RESULT> 
ENERGY=   -5.394  LOWER_BOUND=    7.770  UPPER_BOUND=    9.661
INTER + INTRA:          -5.394
INTER:                  -5.394
INTRA:                   0.000
UNBOUND:                 0.000

$$$$

     RDKit          3D

 49 50  0  0  0  0  0  0  0  0999 V2000
   40.1916   12.3488   14.5065 C   0  0  1  0  0  0  0  0  0  0  0  0
   40.0369   13.7821   14.9598 C   0  0  0  0  0  0  0  0  0  0  0  0
   38.8996   12.8255   15.1342 C   0  0  2  0  0  0  0  0  0  0  0  0
   40.2374   12.0181   13.0332 C   0  0  0  0  0  0  0  0  0  0  0  0
   38.5540   12.3820   16.4846 N   0  0  0  0  0  0  0  0  0  0  0  0
   41.1608   12.6340   12.1731 C   0  0  0  0  0  0  0  0  0  0  0  0
   39.3815   11.0528   12.4763 C   0  0  0  0  0  0  0  0  0  0  0  0
   39.4285   10.7331   11.1168 C   0  0  0  0  0  0  0  0  0  0  0  0
   41.2129   12.3199   10.8123 C   0  0  0  0  0  0  0  0  0  0  0  0
   40.3431   11.3710   10.2840 C   0  0  0  0  0  0  0  0  0  0  0  0
   39.4684   12.4280   13.1169 S   0  0  0  0  0  0  0  0  0  0  0  0
   38.4393   11.5359   12.6453 O   0  0  0  0  0  0  0  0  0  0  0  0
   39.4125   13.8614   12.9828 O   0  0  0  0  0  0  0  0  0  0  0  0
   39.7196   12.1290   14.6728 O   0  0  0  0  0  0  0  0  0  0  0  0
   40.8461   11.9115   12.4765 O   0  0  0  0  0  0  0  0  0  0  0  0
   39.2690   13.1106   13.9377 C   0  0  2  0  0  0  0  0  0  0  0  0
   40.1714   14.1889   14.4879 C   0  0  0  0  0  0  0  0  0  0  0  0
   39.8138   13.0113   15.3469 C   0  0  1  0  0  0  0  0  0  0  0  0
   39.7197   12.1085   12.8889 C   0  0  0  0  0  0  0  0  0  0  0  0
   38.9273   13.2060   16.4945 N   0  0  0  0  0  0  0  0  0  0  0  0
   38.7567   11.3570   12.1873 C   0  0  0  0  0  0  0  0  0  0  0  0
   41.0670   11.8672   12.5619 C   0  0  0  0  0  0  0  0  0  0  0  0
   41.4331   10.9332   11.5864 C   0  0  0  0  0  0  0  0  0  0  0  0
   39.1139   10.4226   11.2102 C   0  0  0  0  0  0  0  0  0  0  0  0
   40.4548   10.2118   10.9092 C   0  0  0  0  0  0  0  0  0  0  0  0
   40.8284   11.7255   15.1314 H   0  0  0  0  0  0  0  0  0  0  0  0
   40.5935   14.0904   15.8377 H   0  0  0  0  0  0  0  0  0  0  0  0
   39.9250   14.5606   14.2147 H   0  0  0  0  0  0  0  0  0  0  0  0
   38.0466   12.9720   14.4738 H   0  0  0  0  0  0  0  0  0  0  0  0
   38.0506   11.4957   16.4524 H   0  0  0  0  0  0  0  0  0  0  0  0
   37.9228   13.0479   16.9292 H   0  0  0  0  0  0  0  0  0  0  0  0
   41.8504   13.3757   12.5713 H   0  0  0  0  0  0  0  0  0  0  0  0
   38.6685   10.5364   13.1163 H   0  0  0  0  0  0  0  0  0  0  0  0
   38.7544    9.9827   10.7123 H   0  0  0  0  0  0  0  0  0  0  0  0
   41.9346   12.8155   10.1690 H   0  0  0  0  0  0  0  0  0  0  0  0
   40.3830   11.1232    9.2268 H   0  0  0  0  0  0  0  0  0  0  0  0
   40.1629   12.9171   15.0495 H   0  0  0  0  0  0  0  0  0  0  0  0
   40.7525   10.9479   12.3280 H   0  0  0  0  0  0  0  0  0  0  0  0
   38.2265   13.4161   13.8441 H   0  0  0  0  0  0  0  0  0  0  0  0
   39.7256   15.1513   14.7162 H   0  0  0  0  0  0  0  0  0  0  0  0
   41.1940   14.2735   14.1432 H   0  0  0  0  0  0  0  0  0  0  0  0
   40.6102   12.2907   15.5276 H   0  0  0  0  0  0  0  0  0  0  0  0
   38.1928   13.8832   16.2923 H   0  0  0  0  0  0  0  0  0  0  0  0
   38.4508   12.3342   16.7257 H   0  0  0  0  0  0  0  0  0  0  0  0
   37.7001   11.5015   12.4062 H   0  0  0  0  0  0  0  0  0  0  0  0
   41.8597   12.4067   13.0750 H   0  0  0  0  0  0  0  0  0  0  0  0
   42.4843   10.7717   11.3602 H   0  0  0  0  0  0  0  0  0  0  0  0
   38.3424    9.8619   10.6876 H   0  0  0  0  0  0  0  0  0  0  0  0
   40.7377    9.4862   10.1513 H   0  0  0  0  0  0  0  0  0  0  0  0
  2  1  1  0
  3  1  1  0
  1  4  1  0
  3  5  1  0
  6  4  2  0
  7  4  1  0
  8  7  2  0
  9  6  1  0
 10  9  2  0
  3  2  1  0
  8 10  1  0
 12 11  2  0
 13 11  2  0
 14 11  1  0
 15 11  1  0
 17 16  1  0
 18 16  1  0
 16 19  1  0
 18 20  1  0
 21 19  2  0
 22 19  1  0
 23 22  2  0
 24 21  1  0
 25 24  2  0
 18 17  1  0
 23 25  1  0
  1 26  1  6
  2 27  1  0
  2 28  1  0
  3 29  1  1
  5 30  1  0
  5 31  1  0
  6 32  1  0
  7 33  1  0
  8 34  1  0
  9 35  1  0
 10 36  1  0
 14 37  1  0
 15 38  1  0
 16 39  1  1
 17 40  1  0
 17 41  1  0
 18 42  1  6
 20 43  1  0
 20 44  1  0
 21 45  1  0
 22 46  1  0
 23 47  1  0
 24 48  1  0
 25 49  1  0
M  END
> <Uni-Dock RESULT> 
ENERGY=   -5.207  LOWER_BOUND=    8.557  UPPER_BOUND=   10.278
INTER + INTRA:          -5.207
INTER:                  -5.207
INTRA:                   0.000
UNBOUND:                 0.000

$$$$

     RDKit          3D

 49 50  0  0  0  0  0  0  0  0999 V2000
   42.1273   10.0389   11.0002 C   0  0  1  0  0  0  0  0  0  0  0  0
   43.1084   10.4459    9.9253 C   0  0  0  0  0  0  0  0  0  0  0  0
   43.4545   10.6688   11.3637 C   0  0  2  0  0  0  0  0  0  0  0  0
   40.8459   10.8152   11.1934 C   0  0  0  0  0  0  0  0  0  0  0  0
   44.4959    9.8418   11.9732 N   0  0  0  0  0  0  0  0  0  0  0  0
   39.9515   11.0274   10.1319 C   0  0  0  0  0  0  0  0  0  0  0  0
   40.4836   11.3214   12.4531 C   0  0  0  0  0  0  0  0  0  0  0  0
   39.2930   12.0286   12.6406 C   0  0  0  0  0  0  0  0  0  0  0  0
   38.7595   11.7344   10.3118 C   0  0  0  0  0  0  0  0  0  0  0  0
   38.4326   12.2382   11.5669 C   0  0  0  0  0  0  0  0  0  0  0  0
   41.4621   11.4284   11.2955 S   0  0  0  0  0  0  0  0  0  0  0  0
   41.2824   12.0222   12.5964 O   0  0  0  0  0  0  0  0  0  0  0  0
   41.9421   12.1480   10.1433 O   0  0  0  0  0  0  0  0  0  0  0  0
   42.4116   10.1452   11.4548 O   0  0  0  0  0  0  0  0  0  0  0  0
   40.0659   10.7347   10.9157 O   0  0  0  0  0  0  0  0  0  0  0  0
   42.4578   11.3159   10.8767 C   0  0  2  0  0  0  0  0  0  0  0  0
   42.8348   10.8311    9.4973 C   0  0  0  0  0  0  0  0  0  0  0  0
   43.2215   10.0205   10.6998 C   0  0  1  0  0  0  0  0  0  0  0  0
   41.0351   11.2792   11.4076 C   0  0  0  0  0  0  0  0  0  0  0  0
   44.6309    9.9383   11.0838 N   0  0  0  0  0  0  0  0  0  0  0  0
   40.6994   12.0363   12.5471 C   0  0  0  0  0  0  0  0  0  0  0  0
   40.0012   10.5192   10.8298 C   0  0  0  0  0  0  0  0  0  0  0  0
   38.7045   10.5184   11.3554 C   0  0  0  0  0  0  0  0  0  0  0  0
   39.4057   12.0422   13.0779 C   0  0  0  0  0  0  0  0  0  0  0  0
   38.4068   11.2824   12.4796 C   0  0  0  0  0  0  0  0  0  0  0  0
   42.0397    8.9681   11.1740 H   0  0  0  0  0  0  0  0  0  0  0  0
   43.6160    9.6532    9.3873 H   0  0  0  0  0  0  0  0  0  0  0  0
   42.8950   11.3199    9.3216 H   0  0  0  0  0  0  0  0  0  0  0  0
   43.4412   11.7031   11.7036 H   0  0  0  0  0  0  0  0  0  0  0  0
   44.3862    9.8176   12.9868 H   0  0  0  0  0  0  0  0  0  0  0  0
   45.4176   10.2418   11.7995 H   0  0  0  0  0  0  0  0  0  0  0  0
   40.1907   10.6368    9.1446 H   0  0  0  0  0  0  0  0  0  0  0  0
   41.1398   11.1560   13.3055 H   0  0  0  0  0  0  0  0  0  0  0  0
   39.0377   12.4096   13.6260 H   0  0  0  0  0  0  0  0  0  0  0  0
   38.0881   11.8877    9.4715 H   0  0  0  0  0  0  0  0  0  0  0  0
   37.5054   12.7863   11.7102 H   0  0  0  0  0  0  0  0  0  0  0  0
   42.7782    9.9466   10.5684 H   0  0  0  0  0  0  0  0  0  0  0  0
   39.6274   10.4885   11.7561 H   0  0  0  0  0  0  0  0  0  0  0  0
   43.0378   12.1755   11.2135 H   0  0  0  0  0  0  0  0  0  0  0  0
   43.6102   11.3735    8.9668 H   0  0  0  0  0  0  0  0  0  0  0  0
   42.0796   10.4276    8.8350 H   0  0  0  0  0  0  0  0  0  0  0  0
   42.6738    9.0907   10.8471 H   0  0  0  0  0  0  0  0  0  0  0  0
   45.1137   10.8239   10.9363 H   0  0  0  0  0  0  0  0  0  0  0  0
   44.7152    9.7340   12.0797 H   0  0  0  0  0  0  0  0  0  0  0  0
   41.4640   12.6377   13.0356 H   0  0  0  0  0  0  0  0  0  0  0  0
   40.1976    9.9042    9.9546 H   0  0  0  0  0  0  0  0  0  0  0  0
   37.9303    9.9181   10.8836 H   0  0  0  0  0  0  0  0  0  0  0  0
   39.1830   12.6407   13.9582 H   0  0  0  0  0  0  0  0  0  0  0  0
   37.4001   11.2829   12.8887 H   0  0  0  0  0  0  0  0  0  0  0  0
  2  1  1  0
  3  1  1  0
  1  4  1  0
  3  5  1  0
  6  4  2  0
  7  4  1  0
  8  7  2  0
  9  6  1  0
 10  9  2  0
  3  2  1  0
  8 10  1  0
 12 11  2  0
 13 11  2  0
 14 11  1  0
 15 11  1  0
 17 16  1  0
 18 16  1  0
 16 19  1  0
 18 20  1  0
 21 19  2  0
 22 19  1  0
 23 22  2  0
 24 21  1  0
 25 24  2  0
 18 17  1  0
 23 25  1  0
  1 26  1  6
  2 27  1  0
  2 28  1  0
  3 29  1  1
  5 30  1  0
  5 31  1  0
  6 32  1  0
  7 33  1  0
  8 34  1  0
  9 35  1  0
 10 36  1  0
 14 37  1  0
 15 38  1  0
 16 39  1  1
 17 40  1  0
 17 41  1  0
 18 42  1  6
 20 43  1  0
 20 44  1  0
 21 45  1  0
 22 46  1  0
 23 47  1  0
 24 48  1  0
 25 49  1  0
M  END
> <Uni-Dock RESULT> 
ENERGY=   -5.018  LOWER_BOUND=    6.923  UPPER_BOUND=    8.937
INTER + INTRA:          -5.018
INTER:                  -5.018
INTRA:                   0.000
UNBOUND:                 0.000

$$$$

     RDKit          3D

 49 50  0  0  0  0  0  0  0  0999 V2000
   47.2761    5.2300   18.5511 C   0  0  1  0  0  0  0  0  0  0  0  0
   48.0965    5.1208   17.2867 C   0  0  0  0  0  0  0  0  0  0  0  0
   47.7524    3.8826   18.0530 C   0  0  2  0  0  0  0  0  0  0  0  0
   47.8796    5.8291   19.7996 C   0  0  0  0  0  0  0  0  0  0  0  0
   46.7834    2.9478   17.4813 N   0  0  0  0  0  0  0  0  0  0  0  0
   48.4624    7.1067   19.7905 C   0  0  0  0  0  0  0  0  0  0  0  0
   47.8459    5.1442   21.0260 C   0  0  0  0  0  0  0  0  0  0  0  0
   48.3907    5.6992   22.1871 C   0  0  0  0  0  0  0  0  0  0  0  0
   49.0099    7.6676   20.9476 C   0  0  0  0  0  0  0  0  0  0  0  0
   48.9767    6.9609   22.1457 C   0  0  0  0  0  0  0  0  0  0  0  0
   48.4221    5.1660   19.6201 S   0  0  0  0  0  0  0  0  0  0  0  0
   48.4583    4.3012   20.7726 O   0  0  0  0  0  0  0  0  0  0  0  0
   49.5462    5.3879   18.7467 O   0  0  0  0  0  0  0  0  0  0  0  0
   47.2053    4.7042   18.6823 O   0  0  0  0  0  0  0  0  0  0  0  0
   47.8915    6.5896   20.1365 O   0  0  0  0  0  0  0  0  0  0  0  0
   48.5094    4.7513   18.6201 C   0  0  2  0  0  0  0  0  0  0  0  0
   48.6098    5.4979   17.3116 C   0  0  0  0  0  0  0  0  0  0  0  0
   47.4069    4.6441   17.5881 C   0  0  1  0  0  0  0  0  0  0  0  0
   48.2290    5.4374   19.9461 C   0  0  0  0  0  0  0  0  0  0  0  0
   47.2218    3.4037   16.8344 N   0  0  0  0  0  0  0  0  0  0  0  0
   48.4739    4.7482   21.1500 C   0  0  0  0  0  0  0  0  0  0  0  0
   47.7245    6.7460   20.0612 C   0  0  0  0  0  0  0  0  0  0  0  0
   47.4829    7.3361   21.3067 C   0  0  0  0  0  0  0  0  0  0  0  0
   48.2364    5.3310   22.3988 C   0  0  0  0  0  0  0  0  0  0  0  0
   47.7410    6.6278   22.4762 C   0  0  0  0  0  0  0  0  0  0  0  0
   46.2199    5.4498   18.4072 H   0  0  0  0  0  0  0  0  0  0  0  0
   47.5899    5.3051   16.3460 H   0  0  0  0  0  0  0  0  0  0  0  0
   49.1300    5.4456   17.3002 H   0  0  0  0  0  0  0  0  0  0  0  0
   48.5724    3.4111   18.5921 H   0  0  0  0  0  0  0  0  0  0  0  0
   46.3640    2.3748   18.2134 H   0  0  0  0  0  0  0  0  0  0  0  0
   47.2453    2.2980   16.8456 H   0  0  0  0  0  0  0  0  0  0  0  0
   48.4932    7.6740   18.8623 H   0  0  0  0  0  0  0  0  0  0  0  0
   47.3809    4.1616   21.0778 H   0  0  0  0  0  0  0  0  0  0  0  0
   48.3513    5.1470   23.1224 H   0  0  0  0  0  0  0  0  0  0  0  0
   49.4587    8.6563   20.9105 H   0  0  0  0  0  0  0  0  0  0  0  0
   49.3995    7.3954   23.0473 H   0  0  0  0  0  0  0  0  0  0  0  0
   47.3773    5.0662   17.7885 H   0  0  0  0  0  0  0  0  0  0  0  0
   47.3256    6.4210   20.9179 H   0  0  0  0  0  0  0  0  0  0  0  0
   49.1865    3.8998   18.6927 H   0  0  0  0  0  0  0  0  0  0  0  0
   49.3375    5.1489   16.5866 H   0  0  0  0  0  0  0  0  0  0  0  0
   48.4743    6.5715   17.2838 H   0  0  0  0  0  0  0  0  0  0  0  0
   46.4778    5.1759   17.7888 H   0  0  0  0  0  0  0  0  0  0  0  0
   48.1083    2.9298   16.6656 H   0  0  0  0  0  0  0  0  0  0  0  0
   46.6489    2.7484   17.3664 H   0  0  0  0  0  0  0  0  0  0  0  0
   48.8595    3.7308   21.1165 H   0  0  0  0  0  0  0  0  0  0  0  0
   47.5039    7.3279   19.1693 H   0  0  0  0  0  0  0  0  0  0  0  0
   47.0915    8.3493   21.3581 H   0  0  0  0  0  0  0  0  0  0  0  0
   48.4392    4.7689   23.3074 H   0  0  0  0  0  0  0  0  0  0  0  0
   47.5540    7.0849   23.4442 H   0  0  0  0  0  0  0  0  0  0  0  0
  2  1  1  0
  3  1  1  0
  1  4  1  0
  3  5  1  0
  6  4  2  0
  7  4  1  0
  8  7  2  0
  9  6  1  0
 10  9  2  0
  3  2  1  0
  8 10  1  0
 12 11  2  0
 13 11  2  0
 14 11  1  0
 15 11  1  0
 17 16  1  0
 18 16  1  0
 16 19  1  0
 18 20  1  0
 21 19  2  0
 22 19  1  0
 23 22  2  0
 24 21  1  0
 25 24  2  0
 18 17  1  0
 23 25  1  0
  1 26  1  6
  2 27  1  0
  2 28  1  0
  3 29  1  1
  5 30  1  0
  5 31  1  0
  6 32  1  0
  7 33  1  0
  8 34  1  0
  9 35  1  0
 10 36  1  0
 14 37  1  0
 15 38  1  0
 16 39  1  1
 17 40  1  0
 17 41  1  0
 18 42  1  6
 20 43  1  0
 20 44  1  0
 21 45  1  0
 22 46  1  0
 23 47  1  0
 24 48  1  0
 25 49  1  0
M  END
> <Uni-Dock RESULT> 
ENERGY=   -4.980  LOWER_BOUND=    9.288  UPPER_BOUND=   11.247
INTER + INTRA:          -4.980
INTER:                  -4.980
INTRA:                   0.000
UNBOUND:                 0.000

$$$$
