
     RDKit          3D

 49 50  0  0  0  0  0  0  0  0999 V2000
   44.4504    2.8807    9.4225 C   0  0  1  0  0  0  0  0  0  0  0  0
   44.6693    3.4143    8.0248 C   0  0  0  0  0  0  0  0  0  0  0  0
   45.7947    2.7345    8.7401 C   0  0  2  0  0  0  0  0  0  0  0  0
   44.2945    3.8354   10.5829 C   0  0  0  0  0  0  0  0  0  0  0  0
   46.2456    1.4168    8.2926 N   0  0  0  0  0  0  0  0  0  0  0  0
   45.0987    3.7231   11.7295 C   0  0  0  0  0  0  0  0  0  0  0  0
   43.3203    4.8474   10.5740 C   0  0  0  0  0  0  0  0  0  0  0  0
   43.1672    5.7215   11.6537 C   0  0  0  0  0  0  0  0  0  0  0  0
   44.9508    4.5935   12.8125 C   0  0  0  0  0  0  0  0  0  0  0  0
   43.9850    5.5948   12.7728 C   0  0  0  0  0  0  0  0  0  0  0  0
   44.7283    4.1770   10.0186 S   0  0  0  0  0  0  0  0  0  0  0  0
   45.8477    4.9612   10.4741 O   0  0  0  0  0  0  0  0  0  0  0  0
   43.7824    4.6267    9.0293 O   0  0  0  0  0  0  0  0  0  0  0  0
   45.2785    2.7591    9.5083 O   0  0  0  0  0  0  0  0  0  0  0  0
   43.9171    3.7391   11.3316 O   0  0  0  0  0  0  0  0  0  0  0  0
   44.3750    3.3052    9.0828 C   0  0  2  0  0  0  0  0  0  0  0  0
   45.1132    2.0047    8.8628 C   0  0  0  0  0  0  0  0  0  0  0  0
   45.7444    3.2931    8.4375 C   0  0  1  0  0  0  0  0  0  0  0  0
   44.2037    3.8544   10.4796 C   0  0  0  0  0  0  0  0  0  0  0  0
   45.8637    3.5794    7.0082 N   0  0  0  0  0  0  0  0  0  0  0  0
   43.6384    3.0800   11.5064 C   0  0  0  0  0  0  0  0  0  0  0  0
   44.5737    5.1725   10.7948 C   0  0  0  0  0  0  0  0  0  0  0  0
   44.4055    5.6897   12.0822 C   0  0  0  0  0  0  0  0  0  0  0  0
   43.4676    3.5907   12.7960 C   0  0  0  0  0  0  0  0  0  0  0  0
   43.8537    4.8965   13.0838 C   0  0  0  0  0  0  0  0  0  0  0  0
   43.8464    1.9790    9.4984 H   0  0  0  0  0  0  0  0  0  0  0  0
   44.1753    2.9004    7.2093 H   0  0  0  0  0  0  0  0  0  0  0  0
   44.7479    4.4863    7.8800 H   0  0  0  0  0  0  0  0  0  0  0  0
   46.5999    3.3781    9.0904 H   0  0  0  0  0  0  0  0  0  0  0  0
   45.4664    0.8412    7.9763 H   0  0  0  0  0  0  0  0  0  0  0  0
   46.8708    1.5069    7.4920 H   0  0  0  0  0  0  0  0  0  0  0  0
   45.8542    2.9405   11.7776 H   0  0  0  0  0  0  0  0  0  0  0  0
   42.6679    4.9559    9.7103 H   0  0  0  0  0  0  0  0  0  0  0  0
   42.4077    6.4980   11.6194 H   0  0  0  0  0  0  0  0  0  0  0  0
   45.5894    4.4856   13.6851 H   0  0  0  0  0  0  0  0  0  0  0  0
   43.8674    6.2725   13.6140 H   0  0  0  0  0  0  0  0  0  0  0  0
   44.5774    2.3603    8.9524 H   0  0  0  0  0  0  0  0  0  0  0  0
   44.5583    3.7120   12.0717 H   0  0  0  0  0  0  0  0  0  0  0  0
   43.5314    3.4832    8.4183 H   0  0  0  0  0  0  0  0  0  0  0  0
   45.5457    1.4943    9.7152 H   0  0  0  0  0  0  0  0  0  0  0  0
   44.7318    1.3375    8.0985 H   0  0  0  0  0  0  0  0  0  0  0  0
   46.5840    3.6357    9.0396 H   0  0  0  0  0  0  0  0  0  0  0  0
   45.9461    4.5830    6.8493 H   0  0  0  0  0  0  0  0  0  0  0  0
   46.7134    3.1622    6.6291 H   0  0  0  0  0  0  0  0  0  0  0  0
   43.3248    2.0595   11.2964 H   0  0  0  0  0  0  0  0  0  0  0  0
   44.9985    5.8085   10.0211 H   0  0  0  0  0  0  0  0  0  0  0  0
   44.7033    6.7119   12.2991 H   0  0  0  0  0  0  0  0  0  0  0  0
   43.0308    2.9680   13.5721 H   0  0  0  0  0  0  0  0  0  0  0  0
   43.7207    5.2964   14.0854 H   0  0  0  0  0  0  0  0  0  0  0  0
  2  1  1  0
  3  1  1  0
  1  4  1  0
  3  5  1  0
  6  4  2  0
  7  4  1  0
  8  7  2  0
  9  6  1  0
 10  9  2  0
  3  2  1  0
  8 10  1  0
 12 11  2  0
 13 11  2  0
 14 11  1  0
 15 11  1  0
 17 16  1  0
 18 16  1  0
 16 19  1  0
 18 20  1  0
 21 19  2  0
 22 19  1  0
 23 22  2  0
 24 21  1  0
 25 24  2  0
 18 17  1  0
 23 25  1  0
  1 26  1  1
  2 27  1  0
  2 28  1  0
  3 29  1  6
  5 30  1  0
  5 31  1  0
  6 32  1  0
  7 33  1  0
  8 34  1  0
  9 35  1  0
 10 36  1  0
 14 37  1  0
 15 38  1  0
 16 39  1  1
 17 40  1  0
 17 41  1  0
 18 42  1  6
 20 43  1  0
 20 44  1  0
 21 45  1  0
 22 46  1  0
 23 47  1  0
 24 48  1  0
 25 49  1  0
M  END
> <Uni-Dock RESULT> 
ENERGY=   -7.171  LOWER_BOUND=    0.000  UPPER_BOUND=    0.000
INTER + INTRA:          -7.171
INTER:                  -7.171
INTRA:                   0.000
UNBOUND:                 0.000

$$$$

     RDKit          3D

 49 50  0  0  0  0  0  0  0  0999 V2000
   46.4531    6.9259   11.8289 C   0  0  1  0  0  0  0  0  0  0  0  0
   46.5587    8.0620   12.8210 C   0  0  0  0  0  0  0  0  0  0  0  0
   47.4426    6.8639   12.9739 C   0  0  2  0  0  0  0  0  0  0  0  0
   45.2394    6.0263   11.8326 C   0  0  0  0  0  0  0  0  0  0  0  0
   48.8758    6.9830   12.7061 N   0  0  0  0  0  0  0  0  0  0  0  0
   45.3699    4.6301   11.9194 C   0  0  0  0  0  0  0  0  0  0  0  0
   43.9401    6.5474   11.7160 C   0  0  0  0  0  0  0  0  0  0  0  0
   42.8184    5.7138   11.7054 C   0  0  0  0  0  0  0  0  0  0  0  0
   44.2527    3.7909   11.9091 C   0  0  0  0  0  0  0  0  0  0  0  0
   42.9758    4.3344   11.8040 C   0  0  0  0  0  0  0  0  0  0  0  0
   45.3486    6.3226   12.5562 S   0  0  0  0  0  0  0  0  0  0  0  0
   45.1174    5.4131   13.6494 O   0  0  0  0  0  0  0  0  0  0  0  0
   44.8250    7.6636   12.5031 O   0  0  0  0  0  0  0  0  0  0  0  0
   46.9315    6.4443   12.3260 O   0  0  0  0  0  0  0  0  0  0  0  0
   44.9008    5.5516   11.2224 O   0  0  0  0  0  0  0  0  0  0  0  0
   46.1755    7.2763   12.1475 C   0  0  2  0  0  0  0  0  0  0  0  0
   47.6650    7.0580   12.0122 C   0  0  0  0  0  0  0  0  0  0  0  0
   47.0566    7.1751   13.3743 C   0  0  1  0  0  0  0  0  0  0  0  0
   45.2114    6.1614   11.8167 C   0  0  0  0  0  0  0  0  0  0  0  0
   47.3247    8.3772   14.1631 N   0  0  0  0  0  0  0  0  0  0  0  0
   45.2470    5.5076   10.5737 C   0  0  0  0  0  0  0  0  0  0  0  0
   44.2213    5.7595   12.7288 C   0  0  0  0  0  0  0  0  0  0  0  0
   43.3186    4.7374   12.4228 C   0  0  0  0  0  0  0  0  0  0  0  0
   44.3477    4.4846   10.2612 C   0  0  0  0  0  0  0  0  0  0  0  0
   43.3840    4.0984   11.1881 C   0  0  0  0  0  0  0  0  0  0  0  0
   46.8680    7.1164   10.8414 H   0  0  0  0  0  0  0  0  0  0  0  0
   46.9879    8.9935   12.4722 H   0  0  0  0  0  0  0  0  0  0  0  0
   45.7688    8.1936   13.5525 H   0  0  0  0  0  0  0  0  0  0  0  0
   47.2045    6.1931   13.7978 H   0  0  0  0  0  0  0  0  0  0  0  0
   49.0607    7.6142   11.9277 H   0  0  0  0  0  0  0  0  0  0  0  0
   49.3570    7.3826   13.5116 H   0  0  0  0  0  0  0  0  0  0  0  0
   46.3629    4.1900   11.9955 H   0  0  0  0  0  0  0  0  0  0  0  0
   43.7995    7.6228   11.6308 H   0  0  0  0  0  0  0  0  0  0  0  0
   41.8241    6.1435   11.6176 H   0  0  0  0  0  0  0  0  0  0  0  0
   44.3834    2.7145   11.9814 H   0  0  0  0  0  0  0  0  0  0  0  0
   42.1055    3.6839   11.7950 H   0  0  0  0  0  0  0  0  0  0  0  0
   47.0849    7.2540   11.7964 H   0  0  0  0  0  0  0  0  0  0  0  0
   45.0080    4.5929   11.3932 H   0  0  0  0  0  0  0  0  0  0  0  0
   45.8228    8.2732   11.8892 H   0  0  0  0  0  0  0  0  0  0  0  0
   48.0288    6.0831   11.7100 H   0  0  0  0  0  0  0  0  0  0  0  0
   48.2584    7.8838   11.6371 H   0  0  0  0  0  0  0  0  0  0  0  0
   47.0026    6.2556   13.9544 H   0  0  0  0  0  0  0  0  0  0  0  0
   46.5968    8.5164   14.8631 H   0  0  0  0  0  0  0  0  0  0  0  0
   48.1986    8.2793   14.6793 H   0  0  0  0  0  0  0  0  0  0  0  0
   45.9897    5.8022    9.8351 H   0  0  0  0  0  0  0  0  0  0  0  0
   44.1512    6.2549   13.6949 H   0  0  0  0  0  0  0  0  0  0  0  0
   42.5647    4.4446   13.1482 H   0  0  0  0  0  0  0  0  0  0  0  0
   44.4004    3.9935    9.2932 H   0  0  0  0  0  0  0  0  0  0  0  0
   42.6828    3.3041   10.9471 H   0  0  0  0  0  0  0  0  0  0  0  0
  2  1  1  0
  3  1  1  0
  1  4  1  0
  3  5  1  0
  6  4  2  0
  7  4  1  0
  8  7  2  0
  9  6  1  0
 10  9  2  0
  3  2  1  0
  8 10  1  0
 12 11  2  0
 13 11  2  0
 14 11  1  0
 15 11  1  0
 17 16  1  0
 18 16  1  0
 16 19  1  0
 18 20  1  0
 21 19  2  0
 22 19  1  0
 23 22  2  0
 24 21  1  0
 25 24  2  0
 18 17  1  0
 23 25  1  0
  1 26  1  1
  2 27  1  0
  2 28  1  0
  3 29  1  6
  5 30  1  0
  5 31  1  0
  6 32  1  0
  7 33  1  0
  8 34  1  0
  9 35  1  0
 10 36  1  0
 14 37  1  0
 15 38  1  0
 16 39  1  1
 17 40  1  0
 17 41  1  0
 18 42  1  6
 20 43  1  0
 20 44  1  0
 21 45  1  0
 22 46  1  0
 23 47  1  0
 24 48  1  0
 25 49  1  0
M  END
> <Uni-Dock RESULT> 
ENERGY=   -5.925  LOWER_BOUND=    3.085  UPPER_BOUND=    4.405
INTER + INTRA:          -5.925
INTER:                  -5.925
INTRA:                   0.000
UNBOUND:                 0.000

$$$$

     RDKit          3D

 49 50  0  0  0  0  0  0  0  0999 V2000
   46.8020    6.1731   12.7098 C   0  0  1  0  0  0  0  0  0  0  0  0
   47.5722    7.2368   11.9606 C   0  0  0  0  0  0  0  0  0  0  0  0
   46.9902    7.5541   13.3025 C   0  0  2  0  0  0  0  0  0  0  0  0
   45.4381    5.7410   12.2245 C   0  0  0  0  0  0  0  0  0  0  0  0
   47.8775    7.7400   14.4506 N   0  0  0  0  0  0  0  0  0  0  0  0
   44.3244    5.7534   13.0810 C   0  0  0  0  0  0  0  0  0  0  0  0
   45.2386    5.2803   10.9125 C   0  0  0  0  0  0  0  0  0  0  0  0
   43.9794    4.8676   10.4682 C   0  0  0  0  0  0  0  0  0  0  0  0
   43.0628    5.3419   12.6434 C   0  0  0  0  0  0  0  0  0  0  0  0
   42.8907    4.9005   11.3348 C   0  0  0  0  0  0  0  0  0  0  0  0
   45.5738    6.4849   11.9974 S   0  0  0  0  0  0  0  0  0  0  0  0
   44.4506    7.3831   12.0821 O   0  0  0  0  0  0  0  0  0  0  0  0
   46.4346    6.3820   10.8468 O   0  0  0  0  0  0  0  0  0  0  0  0
   46.5307    6.7517   13.2571 O   0  0  0  0  0  0  0  0  0  0  0  0
   45.0117    5.0221   12.3409 O   0  0  0  0  0  0  0  0  0  0  0  0
   46.8793    6.4199   12.2256 C   0  0  2  0  0  0  0  0  0  0  0  0
   47.4845    6.7221   13.5772 C   0  0  0  0  0  0  0  0  0  0  0  0
   46.9612    7.8430   12.7352 C   0  0  1  0  0  0  0  0  0  0  0  0
   45.5397    5.7281   12.1308 C   0  0  0  0  0  0  0  0  0  0  0  0
   47.9153    8.7675   12.1236 N   0  0  0  0  0  0  0  0  0  0  0  0
   45.2993    4.5062   12.7810 C   0  0  0  0  0  0  0  0  0  0  0  0
   44.4947    6.2657   11.3610 C   0  0  0  0  0  0  0  0  0  0  0  0
   43.2577    5.6233   11.2595 C   0  0  0  0  0  0  0  0  0  0  0  0
   44.0647    3.8585   12.6841 C   0  0  0  0  0  0  0  0  0  0  0  0
   43.0427    4.4194   11.9239 C   0  0  0  0  0  0  0  0  0  0  0  0
   47.3969    5.3742   13.1474 H   0  0  0  0  0  0  0  0  0  0  0  0
   48.6436    7.1073   11.8672 H   0  0  0  0  0  0  0  0  0  0  0  0
   47.1133    7.7048   11.0965 H   0  0  0  0  0  0  0  0  0  0  0  0
   46.1234    8.2130   13.3067 H   0  0  0  0  0  0  0  0  0  0  0  0
   48.6740    7.1051   14.4157 H   0  0  0  0  0  0  0  0  0  0  0  0
   48.2691    8.6815   14.4497 H   0  0  0  0  0  0  0  0  0  0  0  0
   44.4451    6.0899   14.1095 H   0  0  0  0  0  0  0  0  0  0  0  0
   46.0802    5.2412   10.2244 H   0  0  0  0  0  0  0  0  0  0  0  0
   43.8521    4.5187    9.4469 H   0  0  0  0  0  0  0  0  0  0  0  0
   42.2183    5.3655   13.3268 H   0  0  0  0  0  0  0  0  0  0  0  0
   41.9108    4.5792   10.9922 H   0  0  0  0  0  0  0  0  0  0  0  0
   47.4025    6.3579   13.0461 H   0  0  0  0  0  0  0  0  0  0  0  0
   44.2305    5.1415   12.9198 H   0  0  0  0  0  0  0  0  0  0  0  0
   47.5877    6.1464   11.4457 H   0  0  0  0  0  0  0  0  0  0  0  0
   46.9283    6.4679   14.4718 H   0  0  0  0  0  0  0  0  0  0  0  0
   48.5575    6.6088   13.6802 H   0  0  0  0  0  0  0  0  0  0  0  0
   46.0371    8.3060   13.0764 H   0  0  0  0  0  0  0  0  0  0  0  0
   47.5014    9.2248   11.3119 H   0  0  0  0  0  0  0  0  0  0  0  0
   48.1591    9.5133   12.7748 H   0  0  0  0  0  0  0  0  0  0  0  0
   46.0899    4.0506   13.3737 H   0  0  0  0  0  0  0  0  0  0  0  0
   44.6495    7.2017   10.8284 H   0  0  0  0  0  0  0  0  0  0  0  0
   42.4659    6.0632   10.6595 H   0  0  0  0  0  0  0  0  0  0  0  0
   43.9051    2.9158   13.2007 H   0  0  0  0  0  0  0  0  0  0  0  0
   42.0823    3.9171   11.8459 H   0  0  0  0  0  0  0  0  0  0  0  0
  2  1  1  0
  3  1  1  0
  1  4  1  0
  3  5  1  0
  6  4  2  0
  7  4  1  0
  8  7  2  0
  9  6  1  0
 10  9  2  0
  3  2  1  0
  8 10  1  0
 12 11  2  0
 13 11  2  0
 14 11  1  0
 15 11  1  0
 17 16  1  0
 18 16  1  0
 16 19  1  0
 18 20  1  0
 21 19  2  0
 22 19  1  0
 23 22  2  0
 24 21  1  0
 25 24  2  0
 18 17  1  0
 23 25  1  0
  1 26  1  1
  2 27  1  0
  2 28  1  0
  3 29  1  6
  5 30  1  0
  5 31  1  0
  6 32  1  0
  7 33  1  0
  8 34  1  0
  9 35  1  0
 10 36  1  0
 14 37  1  0
 15 38  1  0
 16 39  1  1
 17 40  1  0
 17 41  1  0
 18 42  1  6
 20 43  1  0
 20 44  1  0
 21 45  1  0
 22 46  1  0
 23 47  1  0
 24 48  1  0
 25 49  1  0
M  END
> <Uni-Dock RESULT> 
ENERGY=   -5.669  LOWER_BOUND=    3.101  UPPER_BOUND=    4.402
INTER + INTRA:          -5.669
INTER:                  -5.669
INTRA:                   0.000
UNBOUND:                 0.000

$$$$

     RDKit          3D

 49 50  0  0  0  0  0  0  0  0999 V2000
   45.2296    3.9351    9.5752 C   0  0  1  0  0  0  0  0  0  0  0  0
   45.5869    2.4780    9.3870 C   0  0  0  0  0  0  0  0  0  0  0  0
   44.5117    3.0893    8.5440 C   0  0  2  0  0  0  0  0  0  0  0  0
   44.5019    4.3826   10.8212 C   0  0  0  0  0  0  0  0  0  0  0  0
   44.7513    3.3177    7.1191 N   0  0  0  0  0  0  0  0  0  0  0  0
   43.3091    5.1206   10.7408 C   0  0  0  0  0  0  0  0  0  0  0  0
   45.0060    4.1077   12.1033 C   0  0  0  0  0  0  0  0  0  0  0  0
   44.3397    4.5340   13.2555 C   0  0  0  0  0  0  0  0  0  0  0  0
   42.6380    5.5500   11.8886 C   0  0  0  0  0  0  0  0  0  0  0  0
   43.1536    5.2542   13.1470 C   0  0  0  0  0  0  0  0  0  0  0  0
   44.3268    3.6272   10.6721 S   0  0  0  0  0  0  0  0  0  0  0  0
   42.9559    3.2440   10.8942 O   0  0  0  0  0  0  0  0  0  0  0  0
   45.4585    2.8720   11.1459 O   0  0  0  0  0  0  0  0  0  0  0  0
   44.5457    3.8317    9.0961 O   0  0  0  0  0  0  0  0  0  0  0  0
   44.4676    5.1351   11.2016 O   0  0  0  0  0  0  0  0  0  0  0  0
   45.3351    3.4585    9.8263 C   0  0  2  0  0  0  0  0  0  0  0  0
   45.2220    3.7755    8.3528 C   0  0  0  0  0  0  0  0  0  0  0  0
   44.5390    2.5625    8.9016 C   0  0  1  0  0  0  0  0  0  0  0  0
   44.6218    4.3164   10.8446 C   0  0  0  0  0  0  0  0  0  0  0  0
   45.0659    1.2425    8.5567 N   0  0  0  0  0  0  0  0  0  0  0  0
   44.8021    5.7091   10.8834 C   0  0  0  0  0  0  0  0  0  0  0  0
   43.7765    3.7483   11.8123 C   0  0  0  0  0  0  0  0  0  0  0  0
   43.1242    4.5360   12.7648 C   0  0  0  0  0  0  0  0  0  0  0  0
   44.1528    6.5029   11.8328 C   0  0  0  0  0  0  0  0  0  0  0  0
   43.3116    5.9150   12.7730 C   0  0  0  0  0  0  0  0  0  0  0  0
   45.9502    4.6549    9.1929 H   0  0  0  0  0  0  0  0  0  0  0  0
   46.5457    2.2514    8.9368 H   0  0  0  0  0  0  0  0  0  0  0  0
   45.2801    1.7619   10.1416 H   0  0  0  0  0  0  0  0  0  0  0  0
   43.4910    2.7885    8.7746 H   0  0  0  0  0  0  0  0  0  0  0  0
   45.7139    3.6012    6.9413 H   0  0  0  0  0  0  0  0  0  0  0  0
   44.6105    2.4565    6.5914 H   0  0  0  0  0  0  0  0  0  0  0  0
   42.8971    5.3652    9.7630 H   0  0  0  0  0  0  0  0  0  0  0  0
   45.9357    3.5522   12.2060 H   0  0  0  0  0  0  0  0  0  0  0  0
   44.7499    4.3048   14.2354 H   0  0  0  0  0  0  0  0  0  0  0  0
   41.7151    6.1162   11.7964 H   0  0  0  0  0  0  0  0  0  0  0  0
   42.6341    5.5877   14.0412 H   0  0  0  0  0  0  0  0  0  0  0  0
   45.5113    3.8077    8.9331 H   0  0  0  0  0  0  0  0  0  0  0  0
   43.5845    5.5520   11.1244 H   0  0  0  0  0  0  0  0  0  0  0  0
   46.3019    3.0778   10.1507 H   0  0  0  0  0  0  0  0  0  0  0  0
   44.5956    4.6021    8.0387 H   0  0  0  0  0  0  0  0  0  0  0  0
   46.1083    3.6400    7.7437 H   0  0  0  0  0  0  0  0  0  0  0  0
   43.4537    2.6137    8.9676 H   0  0  0  0  0  0  0  0  0  0  0  0
   44.7830    0.5511    9.2504 H   0  0  0  0  0  0  0  0  0  0  0  0
   44.6815    0.9246    7.6673 H   0  0  0  0  0  0  0  0  0  0  0  0
   45.4618    6.1838   10.1600 H   0  0  0  0  0  0  0  0  0  0  0  0
   43.6262    2.6708   11.8250 H   0  0  0  0  0  0  0  0  0  0  0  0
   42.4736    4.0704   13.4999 H   0  0  0  0  0  0  0  0  0  0  0  0
   44.3078    7.5785   11.8375 H   0  0  0  0  0  0  0  0  0  0  0  0
   42.8066    6.5299   13.5131 H   0  0  0  0  0  0  0  0  0  0  0  0
  2  1  1  0
  3  1  1  0
  1  4  1  0
  3  5  1  0
  6  4  2  0
  7  4  1  0
  8  7  2  0
  9  6  1  0
 10  9  2  0
  3  2  1  0
  8 10  1  0
 12 11  2  0
 13 11  2  0
 14 11  1  0
 15 11  1  0
 17 16  1  0
 18 16  1  0
 16 19  1  0
 18 20  1  0
 21 19  2  0
 22 19  1  0
 23 22  2  0
 24 21  1  0
 25 24  2  0
 18 17  1  0
 23 25  1  0
  1 26  1  1
  2 27  1  0
  2 28  1  0
  3 29  1  6
  5 30  1  0
  5 31  1  0
  6 32  1  0
  7 33  1  0
  8 34  1  0
  9 35  1  0
 10 36  1  0
 14 37  1  0
 15 38  1  0
 16 39  1  1
 17 40  1  0
 17 41  1  0
 18 42  1  6
 20 43  1  0
 20 44  1  0
 21 45  1  0
 22 46  1  0
 23 47  1  0
 24 48  1  0
 25 49  1  0
M  END
> <Uni-Dock RESULT> 
ENERGY=   -5.476  LOWER_BOUND=    0.923  UPPER_BOUND=    2.099
INTER + INTRA:          -5.476
INTER:                  -5.476
INTRA:                   0.000
UNBOUND:                 0.000

$$$$

     RDKit          3D

 49 50  0  0  0  0  0  0  0  0999 V2000
   46.0273    6.7570   13.0403 C   0  0  1  0  0  0  0  0  0  0  0  0
   47.5306    6.6063   13.1004 C   0  0  0  0  0  0  0  0  0  0  0  0
   46.9266    7.6212   12.1809 C   0  0  2  0  0  0  0  0  0  0  0  0
   45.1822    5.6802   12.4010 C   0  0  0  0  0  0  0  0  0  0  0  0
   47.0714    9.0457   12.4801 N   0  0  0  0  0  0  0  0  0  0  0  0
   44.2649    5.9857   11.3817 C   0  0  0  0  0  0  0  0  0  0  0  0
   45.2570    4.3424   12.8229 C   0  0  0  0  0  0  0  0  0  0  0  0
   44.4649    3.3490   12.2407 C   0  0  0  0  0  0  0  0  0  0  0  0
   43.4698    4.9975   10.7955 C   0  0  0  0  0  0  0  0  0  0  0  0
   43.5720    3.6776   11.2247 C   0  0  0  0  0  0  0  0  0  0  0  0
   45.9035    5.6729   12.0799 S   0  0  0  0  0  0  0  0  0  0  0  0
   45.9561    5.4522   10.6572 O   0  0  0  0  0  0  0  0  0  0  0  0
   46.7381    4.9838   13.0307 O   0  0  0  0  0  0  0  0  0  0  0  0
   46.1008    7.2409   12.3559 O   0  0  0  0  0  0  0  0  0  0  0  0
   44.3718    5.4734   12.5135 O   0  0  0  0  0  0  0  0  0  0  0  0
   46.4473    6.4036   13.0448 C   0  0  2  0  0  0  0  0  0  0  0  0
   46.4502    7.9148   13.0169 C   0  0  0  0  0  0  0  0  0  0  0  0
   47.3558    7.1576   12.0973 C   0  0  1  0  0  0  0  0  0  0  0  0
   45.2633    5.6363   12.5049 C   0  0  0  0  0  0  0  0  0  0  0  0
   48.7956    7.1795   12.3530 N   0  0  0  0  0  0  0  0  0  0  0  0
   43.9585    5.8881   12.9604 C   0  0  0  0  0  0  0  0  0  0  0  0
   45.4282    4.6189   11.5502 C   0  0  0  0  0  0  0  0  0  0  0  0
   44.3378    3.8973   11.0569 C   0  0  0  0  0  0  0  0  0  0  0  0
   42.8635    5.1706   12.4713 C   0  0  0  0  0  0  0  0  0  0  0  0
   43.0541    4.1755   11.5170 C   0  0  0  0  0  0  0  0  0  0  0  0
   45.5633    7.2436   13.8957 H   0  0  0  0  0  0  0  0  0  0  0  0
   48.0321    6.9417   14.0001 H   0  0  0  0  0  0  0  0  0  0  0  0
   47.9880    5.7340   12.6464 H   0  0  0  0  0  0  0  0  0  0  0  0
   46.9659    7.3899   11.1177 H   0  0  0  0  0  0  0  0  0  0  0  0
   47.0256    9.2251   13.4822 H   0  0  0  0  0  0  0  0  0  0  0  0
   47.9847    9.3828   12.1763 H   0  0  0  0  0  0  0  0  0  0  0  0
   44.1691    7.0151   11.0400 H   0  0  0  0  0  0  0  0  0  0  0  0
   45.9443    4.0695   13.6208 H   0  0  0  0  0  0  0  0  0  0  0  0
   44.5451    2.3209   12.5837 H   0  0  0  0  0  0  0  0  0  0  0  0
   42.7713    5.2621   10.0062 H   0  0  0  0  0  0  0  0  0  0  0  0
   42.9543    2.9074   10.7710 H   0  0  0  0  0  0  0  0  0  0  0  0
   46.3462    7.3395   13.2992 H   0  0  0  0  0  0  0  0  0  0  0  0
   43.8203    5.6889   11.7330 H   0  0  0  0  0  0  0  0  0  0  0  0
   46.9254    5.9501   13.9112 H   0  0  0  0  0  0  0  0  0  0  0  0
   45.6093    8.4347   12.5733 H   0  0  0  0  0  0  0  0  0  0  0  0
   46.8861    8.4288   13.8658 H   0  0  0  0  0  0  0  0  0  0  0  0
   47.0829    7.1663   11.0435 H   0  0  0  0  0  0  0  0  0  0  0  0
   49.2476    6.3705   11.9281 H   0  0  0  0  0  0  0  0  0  0  0  0
   49.2231    8.0000   11.9244 H   0  0  0  0  0  0  0  0  0  0  0  0
   43.7929    6.6578   13.7114 H   0  0  0  0  0  0  0  0  0  0  0  0
   46.4261    4.3831   11.1866 H   0  0  0  0  0  0  0  0  0  0  0  0
   44.4938    3.1175   10.3165 H   0  0  0  0  0  0  0  0  0  0  0  0
   41.8644    5.3888   12.8389 H   0  0  0  0  0  0  0  0  0  0  0  0
   42.2046    3.6153   11.1360 H   0  0  0  0  0  0  0  0  0  0  0  0
  2  1  1  0
  3  1  1  0
  1  4  1  0
  3  5  1  0
  6  4  2  0
  7  4  1  0
  8  7  2  0
  9  6  1  0
 10  9  2  0
  3  2  1  0
  8 10  1  0
 12 11  2  0
 13 11  2  0
 14 11  1  0
 15 11  1  0
 17 16  1  0
 18 16  1  0
 16 19  1  0
 18 20  1  0
 21 19  2  0
 22 19  1  0
 23 22  2  0
 24 21  1  0
 25 24  2  0
 18 17  1  0
 23 25  1  0
  1 26  1  1
  2 27  1  0
  2 28  1  0
  3 29  1  6
  5 30  1  0
  5 31  1  0
  6 32  1  0
  7 33  1  0
  8 34  1  0
  9 35  1  0
 10 36  1  0
 14 37  1  0
 15 38  1  0
 16 39  1  1
 17 40  1  0
 17 41  1  0
 18 42  1  6
 20 43  1  0
 20 44  1  0
 21 45  1  0
 22 46  1  0
 23 47  1  0
 24 48  1  0
 25 49  1  0
M  END
> <Uni-Dock RESULT> 
ENERGY=   -5.439  LOWER_BOUND=    2.827  UPPER_BOUND=    4.441
INTER + INTRA:          -5.439
INTER:                  -5.439
INTRA:                   0.000
UNBOUND:                 0.000

$$$$

     RDKit          3D

 49 50  0  0  0  0  0  0  0  0999 V2000
   48.7870    5.2426   20.1989 C   0  0  1  0  0  0  0  0  0  0  0  0
   48.3941    6.6265   20.6644 C   0  0  0  0  0  0  0  0  0  0  0  0
   47.7392    5.4280   21.2767 C   0  0  2  0  0  0  0  0  0  0  0  0
   48.3791    4.7598   18.8267 C   0  0  0  0  0  0  0  0  0  0  0  0
   48.0444    5.0644   22.6604 N   0  0  0  0  0  0  0  0  0  0  0  0
   47.6904    3.5469   18.6581 C   0  0  0  0  0  0  0  0  0  0  0  0
   48.7010    5.4861   17.6682 C   0  0  0  0  0  0  0  0  0  0  0  0
   48.3356    5.0320   16.3979 C   0  0  0  0  0  0  0  0  0  0  0  0
   47.3222    3.0870   17.3911 C   0  0  0  0  0  0  0  0  0  0  0  0
   47.6439    3.8320   16.2604 C   0  0  0  0  0  0  0  0  0  0  0  0
   47.8594    5.2970   19.0811 S   0  0  0  0  0  0  0  0  0  0  0  0
   46.4763    5.0233   18.7849 O   0  0  0  0  0  0  0  0  0  0  0  0
   48.4904    6.5732   18.8607 O   0  0  0  0  0  0  0  0  0  0  0  0
   48.1333    4.9145   20.6148 O   0  0  0  0  0  0  0  0  0  0  0  0
   48.7166    4.1717   18.3243 O   0  0  0  0  0  0  0  0  0  0  0  0
   48.6518    5.7514   20.0434 C   0  0  2  0  0  0  0  0  0  0  0  0
   48.6906    5.1357   21.4232 C   0  0  0  0  0  0  0  0  0  0  0  0
   47.5124    5.9639   21.0171 C   0  0  1  0  0  0  0  0  0  0  0  0
   48.4523    4.8778   18.8273 C   0  0  0  0  0  0  0  0  0  0  0  0
   47.3324    7.2792   21.6309 N   0  0  0  0  0  0  0  0  0  0  0  0
   49.2833    3.7735   18.5750 C   0  0  0  0  0  0  0  0  0  0  0  0
   47.4479    5.1577   17.8858 C   0  0  0  0  0  0  0  0  0  0  0  0
   47.2673    4.3603   16.7523 C   0  0  0  0  0  0  0  0  0  0  0  0
   49.1082    2.9717   17.4438 C   0  0  0  0  0  0  0  0  0  0  0  0
   48.0975    3.2650   16.5330 C   0  0  0  0  0  0  0  0  0  0  0  0
   49.7617    4.8887   20.5282 H   0  0  0  0  0  0  0  0  0  0  0  0
   49.1194    7.1850   21.2434 H   0  0  0  0  0  0  0  0  0  0  0  0
   47.7874    7.2456   20.0125 H   0  0  0  0  0  0  0  0  0  0  0  0
   46.7027    5.2502   20.9948 H   0  0  0  0  0  0  0  0  0  0  0  0
   49.0223    5.2399   22.8874 H   0  0  0  0  0  0  0  0  0  0  0  0
   47.4997    5.6343   23.3072 H   0  0  0  0  0  0  0  0  0  0  0  0
   47.4376    2.9499   19.5329 H   0  0  0  0  0  0  0  0  0  0  0  0
   49.2477    6.4224   17.7571 H   0  0  0  0  0  0  0  0  0  0  0  0
   48.5943    5.6153   15.5182 H   0  0  0  0  0  0  0  0  0  0  0  0
   46.7867    2.1467   17.2908 H   0  0  0  0  0  0  0  0  0  0  0  0
   47.3594    3.4762   15.2740 H   0  0  0  0  0  0  0  0  0  0  0  0
   48.9655    5.3587   20.8790 H   0  0  0  0  0  0  0  0  0  0  0  0
   48.1439    3.3815   18.2384 H   0  0  0  0  0  0  0  0  0  0  0  0
   49.3178    6.5986   19.8896 H   0  0  0  0  0  0  0  0  0  0  0  0
   48.5381    4.0680   21.5277 H   0  0  0  0  0  0  0  0  0  0  0  0
   49.3947    5.5505   22.1352 H   0  0  0  0  0  0  0  0  0  0  0  0
   46.5876    5.4208   20.8310 H   0  0  0  0  0  0  0  0  0  0  0  0
   46.7580    7.8764   21.0371 H   0  0  0  0  0  0  0  0  0  0  0  0
   46.8331    7.1961   22.5161 H   0  0  0  0  0  0  0  0  0  0  0  0
   50.0827    3.5346   19.2734 H   0  0  0  0  0  0  0  0  0  0  0  0
   46.7960    6.0153   18.0379 H   0  0  0  0  0  0  0  0  0  0  0  0
   46.4804    4.5980   16.0418 H   0  0  0  0  0  0  0  0  0  0  0  0
   49.7635    2.1213   17.2755 H   0  0  0  0  0  0  0  0  0  0  0  0
   47.9601    2.6439   15.6521 H   0  0  0  0  0  0  0  0  0  0  0  0
  2  1  1  0
  3  1  1  0
  1  4  1  0
  3  5  1  0
  6  4  2  0
  7  4  1  0
  8  7  2  0
  9  6  1  0
 10  9  2  0
  3  2  1  0
  8 10  1  0
 12 11  2  0
 13 11  2  0
 14 11  1  0
 15 11  1  0
 17 16  1  0
 18 16  1  0
 16 19  1  0
 18 20  1  0
 21 19  2  0
 22 19  1  0
 23 22  2  0
 24 21  1  0
 25 24  2  0
 18 17  1  0
 23 25  1  0
  1 26  1  1
  2 27  1  0
  2 28  1  0
  3 29  1  6
  5 30  1  0
  5 31  1  0
  6 32  1  0
  7 33  1  0
  8 34  1  0
  9 35  1  0
 10 36  1  0
 14 37  1  0
 15 38  1  0
 16 39  1  1
 17 40  1  0
 17 41  1  0
 18 42  1  6
 20 43  1  0
 20 44  1  0
 21 45  1  0
 22 46  1  0
 23 47  1  0
 24 48  1  0
 25 49  1  0
M  END
> <Uni-Dock RESULT> 
ENERGY=   -5.106  LOWER_BOUND=    8.322  UPPER_BOUND=   10.212
INTER + INTRA:          -5.106
INTER:                  -5.106
INTRA:                   0.000
UNBOUND:                 0.000

$$$$

     RDKit          3D

 49 50  0  0  0  0  0  0  0  0999 V2000
   44.2253    6.4456   11.2911 C   0  0  1  0  0  0  0  0  0  0  0  0
   44.1077    4.9604   11.0331 C   0  0  0  0  0  0  0  0  0  0  0  0
   43.2919    5.5877   12.1200 C   0  0  2  0  0  0  0  0  0  0  0  0
   45.4811    7.0102   11.9127 C   0  0  0  0  0  0  0  0  0  0  0  0
   41.8442    5.7168   11.9555 N   0  0  0  0  0  0  0  0  0  0  0  0
   45.4241    7.8158   13.0624 C   0  0  0  0  0  0  0  0  0  0  0  0
   46.7465    6.7796   11.3479 C   0  0  0  0  0  0  0  0  0  0  0  0
   47.9066    7.3137   11.9154 C   0  0  0  0  0  0  0  0  0  0  0  0
   46.5800    8.3531   13.6348 C   0  0  0  0  0  0  0  0  0  0  0  0
   47.8223    8.0996   13.0612 C   0  0  0  0  0  0  0  0  0  0  0  0
   45.3897    6.2599   12.1412 S   0  0  0  0  0  0  0  0  0  0  0  0
   45.7142    5.9774   13.5162 O   0  0  0  0  0  0  0  0  0  0  0  0
   45.8431    5.4640   11.0293 O   0  0  0  0  0  0  0  0  0  0  0  0
   43.7939    6.3576   12.0081 O   0  0  0  0  0  0  0  0  0  0  0  0
   45.8153    7.7843   11.8788 O   0  0  0  0  0  0  0  0  0  0  0  0
   44.4990    5.9788   11.1988 C   0  0  2  0  0  0  0  0  0  0  0  0
   43.0177    6.2155   11.3834 C   0  0  0  0  0  0  0  0  0  0  0  0
   43.6795    5.0821   12.1021 C   0  0  1  0  0  0  0  0  0  0  0  0
   45.5016    6.9381   11.7958 C   0  0  0  0  0  0  0  0  0  0  0  0
   43.3874    3.7136   11.6767 N   0  0  0  0  0  0  0  0  0  0  0  0
   45.4432    8.3166   11.5311 C   0  0  0  0  0  0  0  0  0  0  0  0
   46.5500    6.4819   12.6121 C   0  0  0  0  0  0  0  0  0  0  0  0
   47.4878    7.3635   13.1566 C   0  0  0  0  0  0  0  0  0  0  0  0
   46.3774    9.2039   12.0725 C   0  0  0  0  0  0  0  0  0  0  0  0
   47.3994    8.7261   12.8875 C   0  0  0  0  0  0  0  0  0  0  0  0
   43.7578    7.0950   10.5539 H   0  0  0  0  0  0  0  0  0  0  0  0
   43.6177    4.6479   10.1190 H   0  0  0  0  0  0  0  0  0  0  0  0
   44.9218    4.3104   11.3348 H   0  0  0  0  0  0  0  0  0  0  0  0
   43.5995    5.3659   13.1406 H   0  0  0  0  0  0  0  0  0  0  0  0
   41.5937    5.9283   10.9906 H   0  0  0  0  0  0  0  0  0  0  0  0
   41.3801    4.8368   12.1794 H   0  0  0  0  0  0  0  0  0  0  0  0
   44.4585    8.0282   13.5186 H   0  0  0  0  0  0  0  0  0  0  0  0
   46.8295    6.1736   10.4482 H   0  0  0  0  0  0  0  0  0  0  0  0
   48.8734    7.1169   11.4600 H   0  0  0  0  0  0  0  0  0  0  0  0
   46.5062    8.9699   14.5264 H   0  0  0  0  0  0  0  0  0  0  0  0
   48.7226    8.5169   13.5039 H   0  0  0  0  0  0  0  0  0  0  0  0
   43.5771    6.2633   11.0575 H   0  0  0  0  0  0  0  0  0  0  0  0
   45.7636    8.2508   12.7387 H   0  0  0  0  0  0  0  0  0  0  0  0
   44.7900    5.5577   10.2381 H   0  0  0  0  0  0  0  0  0  0  0  0
   42.6896    7.0601   11.9778 H   0  0  0  0  0  0  0  0  0  0  0  0
   42.3679    5.9891   10.5459 H   0  0  0  0  0  0  0  0  0  0  0  0
   43.8048    5.2054   13.1763 H   0  0  0  0  0  0  0  0  0  0  0  0
   44.1380    3.0832   11.9568 H   0  0  0  0  0  0  0  0  0  0  0  0
   42.5433    3.3691   12.1333 H   0  0  0  0  0  0  0  0  0  0  0  0
   44.6547    8.7056   10.8902 H   0  0  0  0  0  0  0  0  0  0  0  0
   46.6384    5.4186   12.8250 H   0  0  0  0  0  0  0  0  0  0  0  0
   48.2869    6.9837   13.7872 H   0  0  0  0  0  0  0  0  0  0  0  0
   46.3061   10.2660   11.8539 H   0  0  0  0  0  0  0  0  0  0  0  0
   48.1278    9.4138   13.3086 H   0  0  0  0  0  0  0  0  0  0  0  0
  2  1  1  0
  3  1  1  0
  1  4  1  0
  3  5  1  0
  6  4  2  0
  7  4  1  0
  8  7  2  0
  9  6  1  0
 10  9  2  0
  3  2  1  0
  8 10  1  0
 12 11  2  0
 13 11  2  0
 14 11  1  0
 15 11  1  0
 17 16  1  0
 18 16  1  0
 16 19  1  0
 18 20  1  0
 21 19  2  0
 22 19  1  0
 23 22  2  0
 24 21  1  0
 25 24  2  0
 18 17  1  0
 23 25  1  0
  1 26  1  1
  2 27  1  0
  2 28  1  0
  3 29  1  6
  5 30  1  0
  5 31  1  0
  6 32  1  0
  7 33  1  0
  8 34  1  0
  9 35  1  0
 10 36  1  0
 14 37  1  0
 15 38  1  0
 16 39  1  1
 17 40  1  0
 17 41  1  0
 18 42  1  6
 20 43  1  0
 20 44  1  0
 21 45  1  0
 22 46  1  0
 23 47  1  0
 24 48  1  0
 25 49  1  0
M  END
> <Uni-Dock RESULT> 
ENERGY=   -4.600  LOWER_BOUND=    3.103  UPPER_BOUND=    4.515
INTER + INTRA:          -4.600
INTER:                  -4.600
INTRA:                   0.000
UNBOUND:                 0.000

$$$$

     RDKit          3D

 49 50  0  0  0  0  0  0  0  0999 V2000
   45.9330    5.4719   13.3729 C   0  0  1  0  0  0  0  0  0  0  0  0
   44.5548    5.4826   12.7510 C   0  0  0  0  0  0  0  0  0  0  0  0
   45.5732    4.4957   12.2722 C   0  0  2  0  0  0  0  0  0  0  0  0
   46.8996    6.5990   13.0941 C   0  0  0  0  0  0  0  0  0  0  0  0
   45.4069    3.0759   12.5827 N   0  0  0  0  0  0  0  0  0  0  0  0
   48.1940    6.3436   12.6112 C   0  0  0  0  0  0  0  0  0  0  0  0
   46.5538    7.9386   13.3376 C   0  0  0  0  0  0  0  0  0  0  0  0
   47.4533    8.9798   13.0926 C   0  0  0  0  0  0  0  0  0  0  0  0
   49.0983    7.3798   12.3643 C   0  0  0  0  0  0  0  0  0  0  0  0
   48.7259    8.6992   12.6037 C   0  0  0  0  0  0  0  0  0  0  0  0
   46.3991    6.5265   12.4877 S   0  0  0  0  0  0  0  0  0  0  0  0
   46.9728    6.6884   11.1761 O   0  0  0  0  0  0  0  0  0  0  0  0
   45.1831    7.1688   12.9171 O   0  0  0  0  0  0  0  0  0  0  0  0
   46.2059    4.9582   12.7650 O   0  0  0  0  0  0  0  0  0  0  0  0
   47.5583    6.8852   13.5372 O   0  0  0  0  0  0  0  0  0  0  0  0
   45.5324    5.7842   13.1648 C   0  0  2  0  0  0  0  0  0  0  0  0
   45.6446    4.2795   13.2521 C   0  0  0  0  0  0  0  0  0  0  0  0
   45.1963    4.9135   11.9729 C   0  0  1  0  0  0  0  0  0  0  0  0
   46.7779    6.6389   13.1477 C   0  0  0  0  0  0  0  0  0  0  0  0
   43.7990    4.7657   11.5669 N   0  0  0  0  0  0  0  0  0  0  0  0
   47.7555    6.5281   14.1505 C   0  0  0  0  0  0  0  0  0  0  0  0
   46.9884    7.6002   12.1451 C   0  0  0  0  0  0  0  0  0  0  0  0
   48.1327    8.4024   12.1317 C   0  0  0  0  0  0  0  0  0  0  0  0
   48.9022    7.3268   14.1432 C   0  0  0  0  0  0  0  0  0  0  0  0
   49.0911    8.2634   13.1313 C   0  0  0  0  0  0  0  0  0  0  0  0
   45.9978    5.0633   14.3791 H   0  0  0  0  0  0  0  0  0  0  0  0
   43.7282    5.1352   13.3588 H   0  0  0  0  0  0  0  0  0  0  0  0
   44.2906    6.2906   12.0774 H   0  0  0  0  0  0  0  0  0  0  0  0
   45.9974    4.6827   11.2871 H   0  0  0  0  0  0  0  0  0  0  0  0
   45.0122    2.9389   13.5122 H   0  0  0  0  0  0  0  0  0  0  0  0
   44.7506    2.6434   11.9328 H   0  0  0  0  0  0  0  0  0  0  0  0
   48.5018    5.3158   12.4254 H   0  0  0  0  0  0  0  0  0  0  0  0
   45.5658    8.1750   13.7266 H   0  0  0  0  0  0  0  0  0  0  0  0
   47.1589   10.0078   13.2866 H   0  0  0  0  0  0  0  0  0  0  0  0
   50.0919    7.1530   11.9874 H   0  0  0  0  0  0  0  0  0  0  0  0
   49.4275    9.5068   12.4133 H   0  0  0  0  0  0  0  0  0  0  0  0
   45.5723    4.8721   13.5072 H   0  0  0  0  0  0  0  0  0  0  0  0
   48.4135    6.6937   13.0995 H   0  0  0  0  0  0  0  0  0  0  0  0
   44.6881    6.2225   13.6940 H   0  0  0  0  0  0  0  0  0  0  0  0
   46.6281    3.8249   13.2662 H   0  0  0  0  0  0  0  0  0  0  0  0
   44.9113    3.7586   13.8569 H   0  0  0  0  0  0  0  0  0  0  0  0
   45.9111    4.8913   11.1523 H   0  0  0  0  0  0  0  0  0  0  0  0
   43.5309    5.5122   10.9266 H   0  0  0  0  0  0  0  0  0  0  0  0
   43.6647    3.8932   11.0565 H   0  0  0  0  0  0  0  0  0  0  0  0
   47.6198    5.8057   14.9528 H   0  0  0  0  0  0  0  0  0  0  0  0
   46.2446    7.7274   11.3613 H   0  0  0  0  0  0  0  0  0  0  0  0
   48.2714    9.1360   11.3424 H   0  0  0  0  0  0  0  0  0  0  0  0
   49.6441    7.2173   14.9298 H   0  0  0  0  0  0  0  0  0  0  0  0
   49.9812    8.8866   13.1241 H   0  0  0  0  0  0  0  0  0  0  0  0
  2  1  1  0
  3  1  1  0
  1  4  1  0
  3  5  1  0
  6  4  2  0
  7  4  1  0
  8  7  2  0
  9  6  1  0
 10  9  2  0
  3  2  1  0
  8 10  1  0
 12 11  2  0
 13 11  2  0
 14 11  1  0
 15 11  1  0
 17 16  1  0
 18 16  1  0
 16 19  1  0
 18 20  1  0
 21 19  2  0
 22 19  1  0
 23 22  2  0
 24 21  1  0
 25 24  2  0
 18 17  1  0
 23 25  1  0
  1 26  1  1
  2 27  1  0
  2 28  1  0
  3 29  1  6
  5 30  1  0
  5 31  1  0
  6 32  1  0
  7 33  1  0
  8 34  1  0
  9 35  1  0
 10 36  1  0
 14 37  1  0
 15 38  1  0
 16 39  1  1
 17 40  1  0
 17 41  1  0
 18 42  1  6
 20 43  1  0
 20 44  1  0
 21 45  1  0
 22 46  1  0
 23 47  1  0
 24 48  1  0
 25 49  1  0
M  END
> <Uni-Dock RESULT> 
ENERGY=   -4.550  LOWER_BOUND=    3.582  UPPER_BOUND=    4.885
INTER + INTRA:          -4.550
INTER:                  -4.550
INTRA:                   0.000
UNBOUND:                 0.000

$$$$

     RDKit          3D

 49 50  0  0  0  0  0  0  0  0999 V2000
   42.0122   11.1384   11.4252 C   0  0  1  0  0  0  0  0  0  0  0  0
   42.7687   10.2428   10.4703 C   0  0  0  0  0  0  0  0  0  0  0  0
   42.7733   11.7238   10.2538 C   0  0  2  0  0  0  0  0  0  0  0  0
   40.5015   11.1463   11.4218 C   0  0  0  0  0  0  0  0  0  0  0  0
   43.9997   12.4857   10.4888 N   0  0  0  0  0  0  0  0  0  0  0  0
   39.7813   12.3447   11.2839 C   0  0  0  0  0  0  0  0  0  0  0  0
   39.7617    9.9639   11.5894 C   0  0  0  0  0  0  0  0  0  0  0  0
   38.3642    9.9736   11.6001 C   0  0  0  0  0  0  0  0  0  0  0  0
   38.3842   12.3616   11.2939 C   0  0  0  0  0  0  0  0  0  0  0  0
   37.6756   11.1740   11.4503 C   0  0  0  0  0  0  0  0  0  0  0  0
   40.7644   10.9411   10.7062 S   0  0  0  0  0  0  0  0  0  0  0  0
   40.0399   11.4906    9.5887 O   0  0  0  0  0  0  0  0  0  0  0  0
   41.1350    9.5534   10.8187 O   0  0  0  0  0  0  0  0  0  0  0  0
   42.1132   11.7878   10.8999 O   0  0  0  0  0  0  0  0  0  0  0  0
   39.9480   11.3550   12.0238 O   0  0  0  0  0  0  0  0  0  0  0  0
   41.9954   10.6785   11.1260 C   0  0  2  0  0  0  0  0  0  0  0  0
   43.0677   11.7399   11.2156 C   0  0  0  0  0  0  0  0  0  0  0  0
   42.6457   11.2279    9.8744 C   0  0  1  0  0  0  0  0  0  0  0  0
   40.5588   11.0216   11.4430 C   0  0  0  0  0  0  0  0  0  0  0  0
   43.5723   10.3838    9.1207 N   0  0  0  0  0  0  0  0  0  0  0  0
   40.2015   11.6226   12.6615 C   0  0  0  0  0  0  0  0  0  0  0  0
   39.5223   10.7216   10.5434 C   0  0  0  0  0  0  0  0  0  0  0  0
   38.1902   11.0252   10.8371 C   0  0  0  0  0  0  0  0  0  0  0  0
   38.8715   11.9293   12.9617 C   0  0  0  0  0  0  0  0  0  0  0  0
   37.8656   11.6316   12.0470 C   0  0  0  0  0  0  0  0  0  0  0  0
   42.4599   11.2722   12.4078 H   0  0  0  0  0  0  0  0  0  0  0  0
   43.6656    9.7606   10.8398 H   0  0  0  0  0  0  0  0  0  0  0  0
   42.2091    9.6389    9.7643 H   0  0  0  0  0  0  0  0  0  0  0  0
   42.1843   12.0884    9.4138 H   0  0  0  0  0  0  0  0  0  0  0  0
   44.5223   12.1196   11.2834 H   0  0  0  0  0  0  0  0  0  0  0  0
   44.6237   12.4134    9.6854 H   0  0  0  0  0  0  0  0  0  0  0  0
   40.3221   13.2826   11.1673 H   0  0  0  0  0  0  0  0  0  0  0  0
   40.2841    9.0180   11.7151 H   0  0  0  0  0  0  0  0  0  0  0  0
   37.8163    9.0439   11.7280 H   0  0  0  0  0  0  0  0  0  0  0  0
   37.8532   13.3030   11.1815 H   0  0  0  0  0  0  0  0  0  0  0  0
   36.5891   11.1845   11.4592 H   0  0  0  0  0  0  0  0  0  0  0  0
   42.7158   11.2486   11.4528 H   0  0  0  0  0  0  0  0  0  0  0  0
   39.4677   12.1835   11.8176 H   0  0  0  0  0  0  0  0  0  0  0  0
   42.3003    9.6778   11.4274 H   0  0  0  0  0  0  0  0  0  0  0  0
   42.7849   12.7533   11.4748 H   0  0  0  0  0  0  0  0  0  0  0  0
   44.0347   11.4409   11.6035 H   0  0  0  0  0  0  0  0  0  0  0  0
   42.0584   11.9121    9.2647 H   0  0  0  0  0  0  0  0  0  0  0  0
   43.0673    9.8117    8.4447 H   0  0  0  0  0  0  0  0  0  0  0  0
   44.2191   10.9567    8.5792 H   0  0  0  0  0  0  0  0  0  0  0  0
   40.9749   11.8555   13.3905 H   0  0  0  0  0  0  0  0  0  0  0  0
   39.7583   10.2397    9.5969 H   0  0  0  0  0  0  0  0  0  0  0  0
   37.4087   10.7848   10.1216 H   0  0  0  0  0  0  0  0  0  0  0  0
   38.6240   12.3975   13.9106 H   0  0  0  0  0  0  0  0  0  0  0  0
   36.8305   11.8677   12.2786 H   0  0  0  0  0  0  0  0  0  0  0  0
  2  1  1  0
  3  1  1  0
  1  4  1  0
  3  5  1  0
  6  4  2  0
  7  4  1  0
  8  7  2  0
  9  6  1  0
 10  9  2  0
  3  2  1  0
  8 10  1  0
 12 11  2  0
 13 11  2  0
 14 11  1  0
 15 11  1  0
 17 16  1  0
 18 16  1  0
 16 19  1  0
 18 20  1  0
 21 19  2  0
 22 19  1  0
 23 22  2  0
 24 21  1  0
 25 24  2  0
 18 17  1  0
 23 25  1  0
  1 26  1  1
  2 27  1  0
  2 28  1  0
  3 29  1  6
  5 30  1  0
  5 31  1  0
  6 32  1  0
  7 33  1  0
  8 34  1  0
  9 35  1  0
 10 36  1  0
 14 37  1  0
 15 38  1  0
 16 39  1  1
 17 40  1  0
 17 41  1  0
 18 42  1  6
 20 43  1  0
 20 44  1  0
 21 45  1  0
 22 46  1  0
 23 47  1  0
 24 48  1  0
 25 49  1  0
M  END
> <Uni-Dock RESULT> 
ENERGY=   -4.492  LOWER_BOUND=    6.975  UPPER_BOUND=    8.672
INTER + INTRA:          -4.492
INTER:                  -4.492
INTRA:                   0.000
UNBOUND:                 0.000

$$$$
