
     RDKit          3D

 49 50  0  0  0  0  0  0  0  0999 V2000
   44.4204    4.3482    8.9899 C   0  0  1  0  0  0  0  0  0  0  0  0
   45.7889    4.5237    8.3711 C   0  0  0  0  0  0  0  0  0  0  0  0
   45.1449    3.1732    8.3671 C   0  0  2  0  0  0  0  0  0  0  0  0
   44.2465    4.4104   10.4891 C   0  0  0  0  0  0  0  0  0  0  0  0
   44.6639    2.6269    7.0985 N   0  0  0  0  0  0  0  0  0  0  0  0
   43.5455    3.4079   11.1807 C   0  0  0  0  0  0  0  0  0  0  0  0
   44.7524    5.4829   11.2442 C   0  0  0  0  0  0  0  0  0  0  0  0
   44.5836    5.5421   12.6302 C   0  0  0  0  0  0  0  0  0  0  0  0
   43.3734    3.4621   12.5665 C   0  0  0  0  0  0  0  0  0  0  0  0
   43.8950    4.5302   13.2914 C   0  0  0  0  0  0  0  0  0  0  0  0
   44.8521    3.8518   10.4699 S   0  0  0  0  0  0  0  0  0  0  0  0
   45.3792    4.6317   11.5616 O   0  0  0  0  0  0  0  0  0  0  0  0
   45.2536    2.4961   10.1852 O   0  0  0  0  0  0  0  0  0  0  0  0
   45.0600    4.6794    9.1105 O   0  0  0  0  0  0  0  0  0  0  0  0
   43.2536    3.8912   10.6108 O   0  0  0  0  0  0  0  0  0  0  0  0
   45.3097    4.1614    9.2958 C   0  0  2  0  0  0  0  0  0  0  0  0
   44.5699    3.8334    8.0183 C   0  0  0  0  0  0  0  0  0  0  0  0
   45.3609    2.7650    8.7090 C   0  0  1  0  0  0  0  0  0  0  0  0
   44.5405    4.4149   10.5715 C   0  0  0  0  0  0  0  0  0  0  0  0
   46.5995    2.2748    8.1022 N   0  0  0  0  0  0  0  0  0  0  0  0
   43.5324    5.3922   10.6379 C   0  0  0  0  0  0  0  0  0  0  0  0
   44.8267    3.7006   11.7469 C   0  0  0  0  0  0  0  0  0  0  0  0
   44.1265    3.9375   12.9323 C   0  0  0  0  0  0  0  0  0  0  0  0
   42.8289    5.6336   11.8214 C   0  0  0  0  0  0  0  0  0  0  0  0
   43.1274    4.9066   12.9687 C   0  0  0  0  0  0  0  0  0  0  0  0
   43.5939    4.7675    8.4182 H   0  0  0  0  0  0  0  0  0  0  0  0
   46.6468    4.6694    9.0171 H   0  0  0  0  0  0  0  0  0  0  0  0
   45.8465    5.0713    7.4384 H   0  0  0  0  0  0  0  0  0  0  0  0
   45.5724    2.4351    9.0433 H   0  0  0  0  0  0  0  0  0  0  0  0
   43.9822    1.8878    7.2660 H   0  0  0  0  0  0  0  0  0  0  0  0
   45.4282    2.1888    6.5853 H   0  0  0  0  0  0  0  0  0  0  0  0
   43.1258    2.5697   10.6271 H   0  0  0  0  0  0  0  0  0  0  0  0
   45.2887    6.2869   10.7413 H   0  0  0  0  0  0  0  0  0  0  0  0
   44.9890    6.3794   13.1899 H   0  0  0  0  0  0  0  0  0  0  0  0
   42.8291    2.6718   13.0759 H   0  0  0  0  0  0  0  0  0  0  0  0
   43.7618    4.5753   14.3689 H   0  0  0  0  0  0  0  0  0  0  0  0
   45.0068    4.0363    8.3713 H   0  0  0  0  0  0  0  0  0  0  0  0
   43.0209    4.7504   11.0242 H   0  0  0  0  0  0  0  0  0  0  0  0
   46.2046    4.7689    9.1819 H   0  0  0  0  0  0  0  0  0  0  0  0
   43.4866    3.7466    8.0448 H   0  0  0  0  0  0  0  0  0  0  0  0
   44.9510    4.2585    7.0971 H   0  0  0  0  0  0  0  0  0  0  0  0
   44.7859    1.9939    9.2177 H   0  0  0  0  0  0  0  0  0  0  0  0
   47.1156    3.0283    7.6476 H   0  0  0  0  0  0  0  0  0  0  0  0
   46.3907    1.5955    7.3692 H   0  0  0  0  0  0  0  0  0  0  0  0
   43.2900    5.9747    9.7514 H   0  0  0  0  0  0  0  0  0  0  0  0
   45.6131    2.9489   11.7355 H   0  0  0  0  0  0  0  0  0  0  0  0
   44.3642    3.3624   13.8258 H   0  0  0  0  0  0  0  0  0  0  0  0
   42.0503    6.3934   11.8440 H   0  0  0  0  0  0  0  0  0  0  0  0
   42.5825    5.0936   13.8901 H   0  0  0  0  0  0  0  0  0  0  0  0
  2  1  1  0
  3  1  1  0
  1  4  1  0
  3  5  1  0
  6  4  2  0
  7  4  1  0
  8  7  2  0
  9  6  1  0
 10  9  2  0
  3  2  1  0
  8 10  1  0
 12 11  2  0
 13 11  2  0
 14 11  1  0
 15 11  1  0
 17 16  1  0
 18 16  1  0
 16 19  1  0
 18 20  1  0
 21 19  2  0
 22 19  1  0
 23 22  2  0
 24 21  1  0
 25 24  2  0
 18 17  1  0
 23 25  1  0
  1 26  1  6
  2 27  1  0
  2 28  1  0
  3 29  1  1
  5 30  1  0
  5 31  1  0
  6 32  1  0
  7 33  1  0
  8 34  1  0
  9 35  1  0
 10 36  1  0
 14 37  1  0
 15 38  1  0
 16 39  1  6
 17 40  1  0
 17 41  1  0
 18 42  1  1
 20 43  1  0
 20 44  1  0
 21 45  1  0
 22 46  1  0
 23 47  1  0
 24 48  1  0
 25 49  1  0
M  END
> <Uni-Dock RESULT> 
ENERGY=   -6.581  LOWER_BOUND=    0.000  UPPER_BOUND=    0.000
INTER + INTRA:          -6.581
INTER:                  -6.581
INTRA:                   0.000
UNBOUND:                 0.000

$$$$

     RDKit          3D

 49 50  0  0  0  0  0  0  0  0999 V2000
   44.7281    2.9160    9.5668 C   0  0  1  0  0  0  0  0  0  0  0  0
   44.2197    3.0462    8.1487 C   0  0  0  0  0  0  0  0  0  0  0  0
   45.6812    3.2065    8.4263 C   0  0  2  0  0  0  0  0  0  0  0  0
   44.4316    3.9906   10.5861 C   0  0  0  0  0  0  0  0  0  0  0  0
   46.6011    2.1614    7.9788 N   0  0  0  0  0  0  0  0  0  0  0  0
   45.4545    4.5469   11.3728 C   0  0  0  0  0  0  0  0  0  0  0  0
   43.1228    4.4541   10.8064 C   0  0  0  0  0  0  0  0  0  0  0  0
   42.8498    5.4431   11.7554 C   0  0  0  0  0  0  0  0  0  0  0  0
   45.1874    5.5359   12.3234 C   0  0  0  0  0  0  0  0  0  0  0  0
   43.8832    5.9849   12.5130 C   0  0  0  0  0  0  0  0  0  0  0  0
   44.7395    4.4774    9.9967 S   0  0  0  0  0  0  0  0  0  0  0  0
   43.6247    5.3222   10.3452 O   0  0  0  0  0  0  0  0  0  0  0  0
   45.9020    4.9388    9.2784 O   0  0  0  0  0  0  0  0  0  0  0  0
   44.1801    3.2111    9.1848 O   0  0  0  0  0  0  0  0  0  0  0  0
   45.2253    3.7783   11.3576 O   0  0  0  0  0  0  0  0  0  0  0  0
   44.5324    3.6674    9.0044 C   0  0  2  0  0  0  0  0  0  0  0  0
   45.3430    2.4080    8.7953 C   0  0  0  0  0  0  0  0  0  0  0  0
   45.9131    3.7305    8.3826 C   0  0  1  0  0  0  0  0  0  0  0  0
   44.3099    4.2005   10.4007 C   0  0  0  0  0  0  0  0  0  0  0  0
   46.0578    4.0442    6.9602 N   0  0  0  0  0  0  0  0  0  0  0  0
   43.7468    3.4004   11.4099 C   0  0  0  0  0  0  0  0  0  0  0  0
   44.6321    5.5271   10.7321 C   0  0  0  0  0  0  0  0  0  0  0  0
   44.4190    6.0293   12.0182 C   0  0  0  0  0  0  0  0  0  0  0  0
   43.5312    3.8976   12.6983 C   0  0  0  0  0  0  0  0  0  0  0  0
   43.8665    5.2128   13.0014 C   0  0  0  0  0  0  0  0  0  0  0  0
   44.7419    1.9026    9.9650 H   0  0  0  0  0  0  0  0  0  0  0  0
   43.6619    3.9313    7.8659 H   0  0  0  0  0  0  0  0  0  0  0  0
   43.8837    2.1422    7.6557 H   0  0  0  0  0  0  0  0  0  0  0  0
   46.0762    4.2180    8.3514 H   0  0  0  0  0  0  0  0  0  0  0  0
   47.4803    2.2191    8.4913 H   0  0  0  0  0  0  0  0  0  0  0  0
   46.8425    2.2940    6.9971 H   0  0  0  0  0  0  0  0  0  0  0  0
   46.4785    4.2014   11.2411 H   0  0  0  0  0  0  0  0  0  0  0  0
   42.3010    4.0360   10.2262 H   0  0  0  0  0  0  0  0  0  0  0  0
   41.8304    5.7865   11.9018 H   0  0  0  0  0  0  0  0  0  0  0  0
   45.9980    5.9503   12.9163 H   0  0  0  0  0  0  0  0  0  0  0  0
   43.6725    6.7530   13.2521 H   0  0  0  0  0  0  0  0  0  0  0  0
   44.9360    2.8315    8.6873 H   0  0  0  0  0  0  0  0  0  0  0  0
   44.4346    3.6806   11.9307 H   0  0  0  0  0  0  0  0  0  0  0  0
   43.6898    3.8055    8.3306 H   0  0  0  0  0  0  0  0  0  0  0  0
   45.7900    1.9204    9.6578 H   0  0  0  0  0  0  0  0  0  0  0  0
   45.0057    1.7181    8.0304 H   0  0  0  0  0  0  0  0  0  0  0  0
   46.7168    4.1221    9.0027 H   0  0  0  0  0  0  0  0  0  0  0  0
   45.2796    3.6722    6.4153 H   0  0  0  0  0  0  0  0  0  0  0  0
   46.8992    3.6051    6.5840 H   0  0  0  0  0  0  0  0  0  0  0  0
   43.4728    2.3708   11.1886 H   0  0  0  0  0  0  0  0  0  0  0  0
   45.0534    6.1795    9.9701 H   0  0  0  0  0  0  0  0  0  0  0  0
   44.6864    7.0593   12.2486 H   0  0  0  0  0  0  0  0  0  0  0  0
   43.0975    3.2552   13.4620 H   0  0  0  0  0  0  0  0  0  0  0  0
   43.6984    5.6017   14.0021 H   0  0  0  0  0  0  0  0  0  0  0  0
  2  1  1  0
  3  1  1  0
  1  4  1  0
  3  5  1  0
  6  4  2  0
  7  4  1  0
  8  7  2  0
  9  6  1  0
 10  9  2  0
  3  2  1  0
  8 10  1  0
 12 11  2  0
 13 11  2  0
 14 11  1  0
 15 11  1  0
 17 16  1  0
 18 16  1  0
 16 19  1  0
 18 20  1  0
 21 19  2  0
 22 19  1  0
 23 22  2  0
 24 21  1  0
 25 24  2  0
 18 17  1  0
 23 25  1  0
  1 26  1  6
  2 27  1  0
  2 28  1  0
  3 29  1  1
  5 30  1  0
  5 31  1  0
  6 32  1  0
  7 33  1  0
  8 34  1  0
  9 35  1  0
 10 36  1  0
 14 37  1  0
 15 38  1  0
 16 39  1  6
 17 40  1  0
 17 41  1  0
 18 42  1  1
 20 43  1  0
 20 44  1  0
 21 45  1  0
 22 46  1  0
 23 47  1  0
 24 48  1  0
 25 49  1  0
M  END
> <Uni-Dock RESULT> 
ENERGY=   -6.570  LOWER_BOUND=    0.898  UPPER_BOUND=    1.847
INTER + INTRA:          -6.570
INTER:                  -6.570
INTRA:                   0.000
UNBOUND:                 0.000

$$$$

     RDKit          3D

 49 50  0  0  0  0  0  0  0  0999 V2000
   46.4984    6.5853   12.8644 C   0  0  1  0  0  0  0  0  0  0  0  0
   47.3447    7.4644   11.9715 C   0  0  0  0  0  0  0  0  0  0  0  0
   46.4866    8.0912   13.0248 C   0  0  2  0  0  0  0  0  0  0  0  0
   45.2810    5.8823   12.3119 C   0  0  0  0  0  0  0  0  0  0  0  0
   47.1314    8.6915   14.1922 N   0  0  0  0  0  0  0  0  0  0  0  0
   44.0386    5.9621   12.9634 C   0  0  0  0  0  0  0  0  0  0  0  0
   45.3494    5.1013   11.1449 C   0  0  0  0  0  0  0  0  0  0  0  0
   44.2233    4.4456   10.6397 C   0  0  0  0  0  0  0  0  0  0  0  0
   42.9094    5.3083   12.4630 C   0  0  0  0  0  0  0  0  0  0  0  0
   43.0026    4.5507   11.2987 C   0  0  0  0  0  0  0  0  0  0  0  0
   45.0969    6.6434   12.0549 S   0  0  0  0  0  0  0  0  0  0  0  0
   44.7333    5.9638   10.8368 O   0  0  0  0  0  0  0  0  0  0  0  0
   44.6521    7.9724   12.3956 O   0  0  0  0  0  0  0  0  0  0  0  0
   46.6979    6.6607   12.1660 O   0  0  0  0  0  0  0  0  0  0  0  0
   44.7170    5.6540   13.2606 O   0  0  0  0  0  0  0  0  0  0  0  0
   46.3059    7.1136   12.0879 C   0  0  2  0  0  0  0  0  0  0  0  0
   47.0319    7.4100   13.3808 C   0  0  0  0  0  0  0  0  0  0  0  0
   46.0216    8.3860   12.8605 C   0  0  1  0  0  0  0  0  0  0  0  0
   45.2692    6.0154   12.0372 C   0  0  0  0  0  0  0  0  0  0  0  0
   46.4671    9.6754   12.3299 N   0  0  0  0  0  0  0  0  0  0  0  0
   45.5739    4.7008   12.4307 C   0  0  0  0  0  0  0  0  0  0  0  0
   43.9692    6.2641   11.5664 C   0  0  0  0  0  0  0  0  0  0  0  0
   43.0092    5.2509   11.5071 C   0  0  0  0  0  0  0  0  0  0  0  0
   44.6175    3.6830   12.3731 C   0  0  0  0  0  0  0  0  0  0  0  0
   43.3355    3.9587   11.9100 C   0  0  0  0  0  0  0  0  0  0  0  0
   47.0471    6.0211   13.6170 H   0  0  0  0  0  0  0  0  0  0  0  0
   47.0532    7.6042   10.9370 H   0  0  0  0  0  0  0  0  0  0  0  0
   48.4168    7.4429   12.1240 H   0  0  0  0  0  0  0  0  0  0  0  0
   45.6053    8.6237   12.6722 H   0  0  0  0  0  0  0  0  0  0  0  0
   46.4645    8.7842   14.9576 H   0  0  0  0  0  0  0  0  0  0  0  0
   47.4445    9.6383   13.9802 H   0  0  0  0  0  0  0  0  0  0  0  0
   43.9510    6.5451   13.8787 H   0  0  0  0  0  0  0  0  0  0  0  0
   46.2990    5.0033   10.6201 H   0  0  0  0  0  0  0  0  0  0  0  0
   44.3029    3.8529    9.7336 H   0  0  0  0  0  0  0  0  0  0  0  0
   41.9605    5.3892   12.9859 H   0  0  0  0  0  0  0  0  0  0  0  0
   42.1265    4.0405   10.9078 H   0  0  0  0  0  0  0  0  0  0  0  0
   46.9351    7.3778   12.7925 H   0  0  0  0  0  0  0  0  0  0  0  0
   44.8133    4.7373   12.9234 H   0  0  0  0  0  0  0  0  0  0  0  0
   46.8947    7.2185   11.1794 H   0  0  0  0  0  0  0  0  0  0  0  0
   46.7681    6.8485   14.2734 H   0  0  0  0  0  0  0  0  0  0  0  0
   48.0851    7.6577   13.3168 H   0  0  0  0  0  0  0  0  0  0  0  0
   45.0785    8.4357   13.4008 H   0  0  0  0  0  0  0  0  0  0  0  0
   47.3460    9.5850   11.8197 H   0  0  0  0  0  0  0  0  0  0  0  0
   46.6513   10.3284   13.0928 H   0  0  0  0  0  0  0  0  0  0  0  0
   46.5739    4.4659   12.7898 H   0  0  0  0  0  0  0  0  0  0  0  0
   43.7044    7.2668   11.2372 H   0  0  0  0  0  0  0  0  0  0  0  0
   42.0069    5.4751   11.1457 H   0  0  0  0  0  0  0  0  0  0  0  0
   44.8789    2.6748   12.6879 H   0  0  0  0  0  0  0  0  0  0  0  0
   42.5908    3.1687   11.8633 H   0  0  0  0  0  0  0  0  0  0  0  0
  2  1  1  0
  3  1  1  0
  1  4  1  0
  3  5  1  0
  6  4  2  0
  7  4  1  0
  8  7  2  0
  9  6  1  0
 10  9  2  0
  3  2  1  0
  8 10  1  0
 12 11  2  0
 13 11  2  0
 14 11  1  0
 15 11  1  0
 17 16  1  0
 18 16  1  0
 16 19  1  0
 18 20  1  0
 21 19  2  0
 22 19  1  0
 23 22  2  0
 24 21  1  0
 25 24  2  0
 18 17  1  0
 23 25  1  0
  1 26  1  6
  2 27  1  0
  2 28  1  0
  3 29  1  1
  5 30  1  0
  5 31  1  0
  6 32  1  0
  7 33  1  0
  8 34  1  0
  9 35  1  0
 10 36  1  0
 14 37  1  0
 15 38  1  0
 16 39  1  6
 17 40  1  0
 17 41  1  0
 18 42  1  1
 20 43  1  0
 20 44  1  0
 21 45  1  0
 22 46  1  0
 23 47  1  0
 24 48  1  0
 25 49  1  0
M  END
> <Uni-Dock RESULT> 
ENERGY=   -6.124  LOWER_BOUND=    3.154  UPPER_BOUND=    4.553
INTER + INTRA:          -6.124
INTER:                  -6.124
INTRA:                   0.000
UNBOUND:                 0.000

$$$$

     RDKit          3D

 49 50  0  0  0  0  0  0  0  0999 V2000
   46.5345    6.6222   12.0509 C   0  0  1  0  0  0  0  0  0  0  0  0
   46.6829    7.7833   13.0082 C   0  0  0  0  0  0  0  0  0  0  0  0
   47.5956    6.6041   13.1313 C   0  0  2  0  0  0  0  0  0  0  0  0
   45.3466    5.6948   12.1535 C   0  0  0  0  0  0  0  0  0  0  0  0
   49.0007    6.7600   12.7568 N   0  0  0  0  0  0  0  0  0  0  0  0
   45.5153    4.3001   12.1861 C   0  0  0  0  0  0  0  0  0  0  0  0
   44.0305    6.1873   12.1919 C   0  0  0  0  0  0  0  0  0  0  0  0
   42.9325    5.3270   12.2792 C   0  0  0  0  0  0  0  0  0  0  0  0
   44.4211    3.4351   12.2730 C   0  0  0  0  0  0  0  0  0  0  0  0
   43.1286    3.9503   12.3212 C   0  0  0  0  0  0  0  0  0  0  0  0
   45.5880    5.6548   12.9405 S   0  0  0  0  0  0  0  0  0  0  0  0
   44.1761    5.7743   13.2051 O   0  0  0  0  0  0  0  0  0  0  0  0
   46.5451    5.1615   13.9000 O   0  0  0  0  0  0  0  0  0  0  0  0
   46.1337    7.0827   12.4515 O   0  0  0  0  0  0  0  0  0  0  0  0
   45.7286    4.7953   11.5920 O   0  0  0  0  0  0  0  0  0  0  0  0
   46.2512    6.7700   12.9548 C   0  0  2  0  0  0  0  0  0  0  0  0
   47.5787    6.9400   12.2509 C   0  0  0  0  0  0  0  0  0  0  0  0
   47.5305    6.2524   13.5810 C   0  0  1  0  0  0  0  0  0  0  0  0
   45.2285    5.7968   12.4160 C   0  0  0  0  0  0  0  0  0  0  0  0
   48.0855    6.9180   14.7606 N   0  0  0  0  0  0  0  0  0  0  0  0
   44.7714    5.8734   11.0890 C   0  0  0  0  0  0  0  0  0  0  0  0
   44.6758    4.7966   13.2332 C   0  0  0  0  0  0  0  0  0  0  0  0
   43.7223    3.9004   12.7442 C   0  0  0  0  0  0  0  0  0  0  0  0
   43.8173    4.9796   10.5945 C   0  0  0  0  0  0  0  0  0  0  0  0
   43.2923    3.9939   11.4232 C   0  0  0  0  0  0  0  0  0  0  0  0
   46.8790    6.8096   11.0350 H   0  0  0  0  0  0  0  0  0  0  0  0
   45.9403    7.9272   13.7843 H   0  0  0  0  0  0  0  0  0  0  0  0
   47.0839    8.7076   12.6106 H   0  0  0  0  0  0  0  0  0  0  0  0
   47.4260    5.9526   13.9866 H   0  0  0  0  0  0  0  0  0  0  0  0
   49.4232    5.8499   12.5768 H   0  0  0  0  0  0  0  0  0  0  0  0
   49.5328    7.1660   13.5259 H   0  0  0  0  0  0  0  0  0  0  0  0
   46.5194    3.8816   12.1423 H   0  0  0  0  0  0  0  0  0  0  0  0
   43.8588    7.2624   12.1536 H   0  0  0  0  0  0  0  0  0  0  0  0
   41.9267    5.7342   12.3124 H   0  0  0  0  0  0  0  0  0  0  0  0
   44.5808    2.3608   12.2989 H   0  0  0  0  0  0  0  0  0  0  0  0
   42.2760    3.2800   12.3878 H   0  0  0  0  0  0  0  0  0  0  0  0
   47.1056    7.0810   12.5869 H   0  0  0  0  0  0  0  0  0  0  0  0
   44.9348    4.9822   11.0460 H   0  0  0  0  0  0  0  0  0  0  0  0
   45.8276    7.6719   13.3909 H   0  0  0  0  0  0  0  0  0  0  0  0
   47.7955    6.3259   11.3805 H   0  0  0  0  0  0  0  0  0  0  0  0
   47.9875    7.9420   12.1906 H   0  0  0  0  0  0  0  0  0  0  0  0
   47.6848    5.1753   13.5713 H   0  0  0  0  0  0  0  0  0  0  0  0
   47.9092    7.9227   14.7392 H   0  0  0  0  0  0  0  0  0  0  0  0
   49.1007    6.8115   14.7831 H   0  0  0  0  0  0  0  0  0  0  0  0
   45.1670    6.6423   10.4283 H   0  0  0  0  0  0  0  0  0  0  0  0
   44.9942    4.7199   14.2707 H   0  0  0  0  0  0  0  0  0  0  0  0
   43.3177    3.1298   13.3984 H   0  0  0  0  0  0  0  0  0  0  0  0
   43.4840    5.0587    9.5617 H   0  0  0  0  0  0  0  0  0  0  0  0
   42.5494    3.2988   11.0411 H   0  0  0  0  0  0  0  0  0  0  0  0
  2  1  1  0
  3  1  1  0
  1  4  1  0
  3  5  1  0
  6  4  2  0
  7  4  1  0
  8  7  2  0
  9  6  1  0
 10  9  2  0
  3  2  1  0
  8 10  1  0
 12 11  2  0
 13 11  2  0
 14 11  1  0
 15 11  1  0
 17 16  1  0
 18 16  1  0
 16 19  1  0
 18 20  1  0
 21 19  2  0
 22 19  1  0
 23 22  2  0
 24 21  1  0
 25 24  2  0
 18 17  1  0
 23 25  1  0
  1 26  1  6
  2 27  1  0
  2 28  1  0
  3 29  1  1
  5 30  1  0
  5 31  1  0
  6 32  1  0
  7 33  1  0
  8 34  1  0
  9 35  1  0
 10 36  1  0
 14 37  1  0
 15 38  1  0
 16 39  1  6
 17 40  1  0
 17 41  1  0
 18 42  1  1
 20 43  1  0
 20 44  1  0
 21 45  1  0
 22 46  1  0
 23 47  1  0
 24 48  1  0
 25 49  1  0
M  END
> <Uni-Dock RESULT> 
ENERGY=   -6.068  LOWER_BOUND=    2.847  UPPER_BOUND=    4.135
INTER + INTRA:          -6.068
INTER:                  -6.068
INTRA:                   0.000
UNBOUND:                 0.000

$$$$

     RDKit          3D

 49 50  0  0  0  0  0  0  0  0999 V2000
   49.1280    4.7872   20.3021 C   0  0  1  0  0  0  0  0  0  0  0  0
   49.3641    6.2280   20.6953 C   0  0  0  0  0  0  0  0  0  0  0  0
   48.1939    5.4899   21.2650 C   0  0  2  0  0  0  0  0  0  0  0  0
   48.6487    4.4437   18.9114 C   0  0  0  0  0  0  0  0  0  0  0  0
   48.2157    5.1217   22.6802 N   0  0  0  0  0  0  0  0  0  0  0  0
   47.5477    3.5936   18.7124 C   0  0  0  0  0  0  0  0  0  0  0  0
   49.2997    4.9362   17.7668 C   0  0  0  0  0  0  0  0  0  0  0  0
   48.8591    4.6109   16.4810 C   0  0  0  0  0  0  0  0  0  0  0  0
   47.1029    3.2647   17.4290 C   0  0  0  0  0  0  0  0  0  0  0  0
   47.7592    3.7758   16.3126 C   0  0  0  0  0  0  0  0  0  0  0  0
   48.0724    5.0040   19.0931 S   0  0  0  0  0  0  0  0  0  0  0  0
   48.3263    5.4561   17.7481 O   0  0  0  0  0  0  0  0  0  0  0  0
   46.8830    5.3338   19.8392 O   0  0  0  0  0  0  0  0  0  0  0  0
   49.3159    5.4311   20.0135 O   0  0  0  0  0  0  0  0  0  0  0  0
   48.2377    3.4074   19.0768 O   0  0  0  0  0  0  0  0  0  0  0  0
   48.7414    5.6179   20.0200 C   0  0  2  0  0  0  0  0  0  0  0  0
   48.9970    5.0107   21.3811 C   0  0  0  0  0  0  0  0  0  0  0  0
   47.6663    5.6333   21.0880 C   0  0  1  0  0  0  0  0  0  0  0  0
   48.5890    4.7255   18.8102 C   0  0  0  0  0  0  0  0  0  0  0  0
   47.2991    6.8944   21.7340 N   0  0  0  0  0  0  0  0  0  0  0  0
   49.5794    3.7924   18.4579 C   0  0  0  0  0  0  0  0  0  0  0  0
   47.4621    4.8178   17.9763 C   0  0  0  0  0  0  0  0  0  0  0  0
   47.3200    4.0030   16.8504 C   0  0  0  0  0  0  0  0  0  0  0  0
   49.4426    2.9749   17.3324 C   0  0  0  0  0  0  0  0  0  0  0  0
   48.3130    3.0817   16.5283 C   0  0  0  0  0  0  0  0  0  0  0  0
   49.8203    4.0670   20.7355 H   0  0  0  0  0  0  0  0  0  0  0  0
   49.1613    7.0127   19.9757 H   0  0  0  0  0  0  0  0  0  0  0  0
   50.2083    6.4353   21.3414 H   0  0  0  0  0  0  0  0  0  0  0  0
   47.2143    5.7789   20.8887 H   0  0  0  0  0  0  0  0  0  0  0  0
   47.5496    4.3717   22.8621 H   0  0  0  0  0  0  0  0  0  0  0  0
   47.9156    5.9060   23.2583 H   0  0  0  0  0  0  0  0  0  0  0  0
   47.0281    3.1803   19.5752 H   0  0  0  0  0  0  0  0  0  0  0  0
   50.1665    5.5863   17.8808 H   0  0  0  0  0  0  0  0  0  0  0  0
   49.3773    5.0092   15.6141 H   0  0  0  0  0  0  0  0  0  0  0  0
   46.2473    2.6069   17.3043 H   0  0  0  0  0  0  0  0  0  0  0  0
   47.4162    3.5210   15.3136 H   0  0  0  0  0  0  0  0  0  0  0  0
   49.0035    5.4171   20.9436 H   0  0  0  0  0  0  0  0  0  0  0  0
   48.9026    3.1926   18.3876 H   0  0  0  0  0  0  0  0  0  0  0  0
   49.2421    6.5629   19.8216 H   0  0  0  0  0  0  0  0  0  0  0  0
   49.0300    3.9284   21.4769 H   0  0  0  0  0  0  0  0  0  0  0  0
   49.6874    5.5279   22.0372 H   0  0  0  0  0  0  0  0  0  0  0  0
   46.8321    4.9466   20.9593 H   0  0  0  0  0  0  0  0  0  0  0  0
   48.1038    7.5151   21.8244 H   0  0  0  0  0  0  0  0  0  0  0  0
   46.9687    6.7228   22.6847 H   0  0  0  0  0  0  0  0  0  0  0  0
   50.4727    3.6998   19.0723 H   0  0  0  0  0  0  0  0  0  0  0  0
   46.6843    5.5418   18.2098 H   0  0  0  0  0  0  0  0  0  0  0  0
   46.4315    4.0907   16.2272 H   0  0  0  0  0  0  0  0  0  0  0  0
   50.2227    2.2579   17.0849 H   0  0  0  0  0  0  0  0  0  0  0  0
   48.2052    2.4480   15.6521 H   0  0  0  0  0  0  0  0  0  0  0  0
  2  1  1  0
  3  1  1  0
  1  4  1  0
  3  5  1  0
  6  4  2  0
  7  4  1  0
  8  7  2  0
  9  6  1  0
 10  9  2  0
  3  2  1  0
  8 10  1  0
 12 11  2  0
 13 11  2  0
 14 11  1  0
 15 11  1  0
 17 16  1  0
 18 16  1  0
 16 19  1  0
 18 20  1  0
 21 19  2  0
 22 19  1  0
 23 22  2  0
 24 21  1  0
 25 24  2  0
 18 17  1  0
 23 25  1  0
  1 26  1  6
  2 27  1  0
  2 28  1  0
  3 29  1  1
  5 30  1  0
  5 31  1  0
  6 32  1  0
  7 33  1  0
  8 34  1  0
  9 35  1  0
 10 36  1  0
 14 37  1  0
 15 38  1  0
 16 39  1  6
 17 40  1  0
 17 41  1  0
 18 42  1  1
 20 43  1  0
 20 44  1  0
 21 45  1  0
 22 46  1  0
 23 47  1  0
 24 48  1  0
 25 49  1  0
M  END
> <Uni-Dock RESULT> 
ENERGY=   -4.696  LOWER_BOUND=    8.391  UPPER_BOUND=   10.275
INTER + INTRA:          -4.696
INTER:                  -4.696
INTRA:                   0.000
UNBOUND:                 0.000

$$$$

     RDKit          3D

 49 50  0  0  0  0  0  0  0  0999 V2000
   45.8092    6.9983   12.3435 C   0  0  1  0  0  0  0  0  0  0  0  0
   45.5283    5.8882   11.3560 C   0  0  0  0  0  0  0  0  0  0  0  0
   45.1431    5.7140   12.7912 C   0  0  2  0  0  0  0  0  0  0  0  0
   47.2257    7.2962   12.7752 C   0  0  0  0  0  0  0  0  0  0  0  0
   43.7243    5.7297   13.1458 N   0  0  0  0  0  0  0  0  0  0  0  0
   47.5615    7.4097   14.1350 C   0  0  0  0  0  0  0  0  0  0  0  0
   48.2531    7.4984   11.8371 C   0  0  0  0  0  0  0  0  0  0  0  0
   49.5615    7.7814   12.2387 C   0  0  0  0  0  0  0  0  0  0  0  0
   48.8680    7.6928   14.5423 C   0  0  0  0  0  0  0  0  0  0  0  0
   49.8688    7.8772   13.5922 C   0  0  0  0  0  0  0  0  0  0  0  0
   47.2289    6.4871   12.9317 S   0  0  0  0  0  0  0  0  0  0  0  0
   48.5303    6.5425   12.3144 O   0  0  0  0  0  0  0  0  0  0  0  0
   46.7881    5.4060   13.7785 O   0  0  0  0  0  0  0  0  0  0  0  0
   46.1177    6.6441   11.7844 O   0  0  0  0  0  0  0  0  0  0  0  0
   47.0428    7.8677   13.7292 O   0  0  0  0  0  0  0  0  0  0  0  0
   46.2517    6.1730   12.1380 C   0  0  2  0  0  0  0  0  0  0  0  0
   44.8113    6.5222   12.4381 C   0  0  0  0  0  0  0  0  0  0  0  0
   45.4410    5.3419   13.1122 C   0  0  1  0  0  0  0  0  0  0  0  0
   47.3662    7.0570   12.6475 C   0  0  0  0  0  0  0  0  0  0  0  0
   45.0223    3.9888   12.7429 N   0  0  0  0  0  0  0  0  0  0  0  0
   47.4028    8.4317   12.3567 C   0  0  0  0  0  0  0  0  0  0  0  0
   48.4232    6.5289   13.4074 C   0  0  0  0  0  0  0  0  0  0  0  0
   49.4621    7.3388   13.8725 C   0  0  0  0  0  0  0  0  0  0  0  0
   48.4399    9.2467   12.8190 C   0  0  0  0  0  0  0  0  0  0  0  0
   49.4700    8.6992   13.5761 C   0  0  0  0  0  0  0  0  0  0  0  0
   45.1670    7.8732   12.2553 H   0  0  0  0  0  0  0  0  0  0  0  0
   46.3525    5.2926   10.9811 H   0  0  0  0  0  0  0  0  0  0  0  0
   44.7445    6.0569   10.6277 H   0  0  0  0  0  0  0  0  0  0  0  0
   45.7450    5.0146   13.3686 H   0  0  0  0  0  0  0  0  0  0  0  0
   43.6089    5.9256   14.1395 H   0  0  0  0  0  0  0  0  0  0  0  0
   43.3076    4.8118   12.9933 H   0  0  0  0  0  0  0  0  0  0  0  0
   46.7887    7.2750   14.8898 H   0  0  0  0  0  0  0  0  0  0  0  0
   48.0283    7.4333   10.7731 H   0  0  0  0  0  0  0  0  0  0  0  0
   50.3370    7.9282   11.4933 H   0  0  0  0  0  0  0  0  0  0  0  0
   49.1001    7.7726   15.6007 H   0  0  0  0  0  0  0  0  0  0  0  0
   50.8853    8.0983   13.9060 H   0  0  0  0  0  0  0  0  0  0  0  0
   45.2777    6.2892   12.1470 H   0  0  0  0  0  0  0  0  0  0  0  0
   47.5505    8.5529   13.2433 H   0  0  0  0  0  0  0  0  0  0  0  0
   46.4383    5.7316   11.1616 H   0  0  0  0  0  0  0  0  0  0  0  0
   44.5979    7.3921   13.0540 H   0  0  0  0  0  0  0  0  0  0  0  0
   44.0826    6.3539   11.6536 H   0  0  0  0  0  0  0  0  0  0  0  0
   45.6695    5.4576   14.1697 H   0  0  0  0  0  0  0  0  0  0  0  0
   44.8304    3.9177   11.7434 H   0  0  0  0  0  0  0  0  0  0  0  0
   44.1497    3.7465   13.2143 H   0  0  0  0  0  0  0  0  0  0  0  0
   46.6081    8.8758   11.7604 H   0  0  0  0  0  0  0  0  0  0  0  0
   48.4355    5.4652   13.6361 H   0  0  0  0  0  0  0  0  0  0  0  0
   50.2638    6.9032   14.4667 H   0  0  0  0  0  0  0  0  0  0  0  0
   48.4415   10.3089   12.5828 H   0  0  0  0  0  0  0  0  0  0  0  0
   50.2780    9.3308   13.9355 H   0  0  0  0  0  0  0  0  0  0  0  0
  2  1  1  0
  3  1  1  0
  1  4  1  0
  3  5  1  0
  6  4  2  0
  7  4  1  0
  8  7  2  0
  9  6  1  0
 10  9  2  0
  3  2  1  0
  8 10  1  0
 12 11  2  0
 13 11  2  0
 14 11  1  0
 15 11  1  0
 17 16  1  0
 18 16  1  0
 16 19  1  0
 18 20  1  0
 21 19  2  0
 22 19  1  0
 23 22  2  0
 24 21  1  0
 25 24  2  0
 18 17  1  0
 23 25  1  0
  1 26  1  6
  2 27  1  0
  2 28  1  0
  3 29  1  1
  5 30  1  0
  5 31  1  0
  6 32  1  0
  7 33  1  0
  8 34  1  0
  9 35  1  0
 10 36  1  0
 14 37  1  0
 15 38  1  0
 16 39  1  6
 17 40  1  0
 17 41  1  0
 18 42  1  1
 20 43  1  0
 20 44  1  0
 21 45  1  0
 22 46  1  0
 23 47  1  0
 24 48  1  0
 25 49  1  0
M  END
> <Uni-Dock RESULT> 
ENERGY=   -4.599  LOWER_BOUND=    4.061  UPPER_BOUND=    5.389
INTER + INTRA:          -4.599
INTER:                  -4.599
INTRA:                   0.000
UNBOUND:                 0.000

$$$$

     RDKit          3D

 49 50  0  0  0  0  0  0  0  0999 V2000
   47.6802    5.4839   18.7893 C   0  0  1  0  0  0  0  0  0  0  0  0
   48.7217    5.2164   17.7262 C   0  0  0  0  0  0  0  0  0  0  0  0
   47.8699    4.0917   18.2244 C   0  0  2  0  0  0  0  0  0  0  0  0
   48.0979    5.7777   20.2109 C   0  0  0  0  0  0  0  0  0  0  0  0
   46.8500    3.5348   17.3363 N   0  0  0  0  0  0  0  0  0  0  0  0
   47.5246    5.0885   21.2931 C   0  0  0  0  0  0  0  0  0  0  0  0
   49.0517    6.7670   20.5075 C   0  0  0  0  0  0  0  0  0  0  0  0
   49.4310    7.0423   21.8241 C   0  0  0  0  0  0  0  0  0  0  0  0
   47.8999    5.3599   22.6116 C   0  0  0  0  0  0  0  0  0  0  0  0
   48.8556    6.3371   22.8762 C   0  0  0  0  0  0  0  0  0  0  0  0
   48.5286    5.0824   20.1092 S   0  0  0  0  0  0  0  0  0  0  0  0
   49.5701    5.8286   20.7699 O   0  0  0  0  0  0  0  0  0  0  0  0
   48.5171    3.6443   20.0011 O   0  0  0  0  0  0  0  0  0  0  0  0
   48.3701    5.6489   18.6159 O   0  0  0  0  0  0  0  0  0  0  0  0
   47.1419    5.5555   20.7649 O   0  0  0  0  0  0  0  0  0  0  0  0
   48.5633    5.1113   18.8124 C   0  0  2  0  0  0  0  0  0  0  0  0
   47.3488    4.8298   17.9564 C   0  0  0  0  0  0  0  0  0  0  0  0
   48.1132    3.6877   18.5527 C   0  0  1  0  0  0  0  0  0  0  0  0
   48.3960    5.7155   20.1872 C   0  0  0  0  0  0  0  0  0  0  0  0
   48.9098    2.8184   17.6853 N   0  0  0  0  0  0  0  0  0  0  0  0
   47.7014    6.9225   20.3781 C   0  0  0  0  0  0  0  0  0  0  0  0
   48.9552    5.1052   21.3223 C   0  0  0  0  0  0  0  0  0  0  0  0
   48.8132    5.6642   22.5948 C   0  0  0  0  0  0  0  0  0  0  0  0
   47.5565    7.4865   21.6488 C   0  0  0  0  0  0  0  0  0  0  0  0
   48.1138    6.8572   22.7567 C   0  0  0  0  0  0  0  0  0  0  0  0
   46.8001    6.0291   18.4519 H   0  0  0  0  0  0  0  0  0  0  0  0
   49.7699    5.2130   18.0015 H   0  0  0  0  0  0  0  0  0  0  0  0
   48.5319    5.6078   16.7343 H   0  0  0  0  0  0  0  0  0  0  0  0
   48.3650    3.3588   18.8589 H   0  0  0  0  0  0  0  0  0  0  0  0
   46.1494    3.0266   17.8749 H   0  0  0  0  0  0  0  0  0  0  0  0
   47.2627    2.8512   16.7024 H   0  0  0  0  0  0  0  0  0  0  0  0
   46.7710    4.3262   21.1029 H   0  0  0  0  0  0  0  0  0  0  0  0
   49.5075    7.3330   19.6958 H   0  0  0  0  0  0  0  0  0  0  0  0
   50.1738    7.8082   22.0247 H   0  0  0  0  0  0  0  0  0  0  0  0
   47.4420    4.8100   23.4291 H   0  0  0  0  0  0  0  0  0  0  0  0
   49.1486    6.5508   23.9005 H   0  0  0  0  0  0  0  0  0  0  0  0
   47.9171    4.9542   18.0913 H   0  0  0  0  0  0  0  0  0  0  0  0
   47.2563    6.4907   21.0399 H   0  0  0  0  0  0  0  0  0  0  0  0
   49.4510    5.4446   18.2796 H   0  0  0  0  0  0  0  0  0  0  0  0
   46.3608    5.0331   18.3614 H   0  0  0  0  0  0  0  0  0  0  0  0
   47.4321    5.0210   16.8929 H   0  0  0  0  0  0  0  0  0  0  0  0
   47.6310    3.1640   19.3757 H   0  0  0  0  0  0  0  0  0  0  0  0
   49.3555    3.3475   16.9354 H   0  0  0  0  0  0  0  0  0  0  0  0
   48.3112    2.1306   17.2263 H   0  0  0  0  0  0  0  0  0  0  0  0
   47.2642    7.4317   19.5215 H   0  0  0  0  0  0  0  0  0  0  0  0
   49.5143    4.1789   21.2083 H   0  0  0  0  0  0  0  0  0  0  0  0
   49.2502    5.1643   23.4577 H   0  0  0  0  0  0  0  0  0  0  0  0
   47.0103    8.4198   21.7688 H   0  0  0  0  0  0  0  0  0  0  0  0
   48.0034    7.2946   23.7453 H   0  0  0  0  0  0  0  0  0  0  0  0
  2  1  1  0
  3  1  1  0
  1  4  1  0
  3  5  1  0
  6  4  2  0
  7  4  1  0
  8  7  2  0
  9  6  1  0
 10  9  2  0
  3  2  1  0
  8 10  1  0
 12 11  2  0
 13 11  2  0
 14 11  1  0
 15 11  1  0
 17 16  1  0
 18 16  1  0
 16 19  1  0
 18 20  1  0
 21 19  2  0
 22 19  1  0
 23 22  2  0
 24 21  1  0
 25 24  2  0
 18 17  1  0
 23 25  1  0
  1 26  1  6
  2 27  1  0
  2 28  1  0
  3 29  1  1
  5 30  1  0
  5 31  1  0
  6 32  1  0
  7 33  1  0
  8 34  1  0
  9 35  1  0
 10 36  1  0
 14 37  1  0
 15 38  1  0
 16 39  1  6
 17 40  1  0
 17 41  1  0
 18 42  1  1
 20 43  1  0
 20 44  1  0
 21 45  1  0
 22 46  1  0
 23 47  1  0
 24 48  1  0
 25 49  1  0
M  END
> <Uni-Dock RESULT> 
ENERGY=   -4.429  LOWER_BOUND=    8.936  UPPER_BOUND=   10.523
INTER + INTRA:          -4.429
INTER:                  -4.429
INTRA:                   0.000
UNBOUND:                 0.000

$$$$

     RDKit          3D

 49 50  0  0  0  0  0  0  0  0999 V2000
   42.2706   10.1493   10.7762 C   0  0  1  0  0  0  0  0  0  0  0  0
   43.0911   10.4969    9.5546 C   0  0  0  0  0  0  0  0  0  0  0  0
   43.6475   10.7638   10.9176 C   0  0  2  0  0  0  0  0  0  0  0  0
   41.0484   10.9626   11.1320 C   0  0  0  0  0  0  0  0  0  0  0  0
   44.7536    9.9375   11.4002 N   0  0  0  0  0  0  0  0  0  0  0  0
   40.8643   11.4658   12.4311 C   0  0  0  0  0  0  0  0  0  0  0  0
   40.0385   11.2229   10.1893 C   0  0  0  0  0  0  0  0  0  0  0  0
   38.9049   11.9692   10.5229 C   0  0  0  0  0  0  0  0  0  0  0  0
   39.7327   12.2124   12.7703 C   0  0  0  0  0  0  0  0  0  0  0  0
   38.7531   12.4652   11.8138 C   0  0  0  0  0  0  0  0  0  0  0  0
   41.5812   11.5872   11.0596 S   0  0  0  0  0  0  0  0  0  0  0  0
   40.4909   12.2157   10.3566 O   0  0  0  0  0  0  0  0  0  0  0  0
   42.6988   12.3089   11.6164 O   0  0  0  0  0  0  0  0  0  0  0  0
   42.2039   10.4497   10.1140 O   0  0  0  0  0  0  0  0  0  0  0  0
   40.9221   10.6942   12.2193 O   0  0  0  0  0  0  0  0  0  0  0  0
   42.4414   10.9694   10.3099 C   0  0  2  0  0  0  0  0  0  0  0  0
   43.3444    9.8754   10.8340 C   0  0  0  0  0  0  0  0  0  0  0  0
   43.6935   11.3089   11.0935 C   0  0  1  0  0  0  0  0  0  0  0  0
   41.0814   11.1896   10.9305 C   0  0  0  0  0  0  0  0  0  0  0  0
   44.8400   11.9098   10.4102 N   0  0  0  0  0  0  0  0  0  0  0  0
   40.1417   10.1487   11.0256 C   0  0  0  0  0  0  0  0  0  0  0  0
   40.6968   12.4532   11.4090 C   0  0  0  0  0  0  0  0  0  0  0  0
   39.4370   12.6660   11.9742 C   0  0  0  0  0  0  0  0  0  0  0  0
   38.8797   10.3559   11.5898 C   0  0  0  0  0  0  0  0  0  0  0  0
   38.5277   11.6154   12.0629 C   0  0  0  0  0  0  0  0  0  0  0  0
   42.1887    9.0857   10.9947 H   0  0  0  0  0  0  0  0  0  0  0  0
   42.8066   11.3514    8.9518 H   0  0  0  0  0  0  0  0  0  0  0  0
   43.5018    9.6750    8.9810 H   0  0  0  0  0  0  0  0  0  0  0  0
   43.6993   11.8083   11.2192 H   0  0  0  0  0  0  0  0  0  0  0  0
   44.8210    9.9926   12.4159 H   0  0  0  0  0  0  0  0  0  0  0  0
   45.6426   10.2865   11.0435 H   0  0  0  0  0  0  0  0  0  0  0  0
   41.6180   11.2709   13.1920 H   0  0  0  0  0  0  0  0  0  0  0  0
   40.1385   10.8365    9.1756 H   0  0  0  0  0  0  0  0  0  0  0  0
   38.1423   12.1598    9.7740 H   0  0  0  0  0  0  0  0  0  0  0  0
   39.6172   12.5914   13.7819 H   0  0  0  0  0  0  0  0  0  0  0  0
   37.8718   13.0446   12.0750 H   0  0  0  0  0  0  0  0  0  0  0  0
   43.1083   10.2631   10.4459 H   0  0  0  0  0  0  0  0  0  0  0  0
   40.0455   10.3972   11.8926 H   0  0  0  0  0  0  0  0  0  0  0  0
   42.4792   11.1408    9.2365 H   0  0  0  0  0  0  0  0  0  0  0  0
   43.0142    9.2818   11.6827 H   0  0  0  0  0  0  0  0  0  0  0  0
   43.9232    9.3153   10.1088 H   0  0  0  0  0  0  0  0  0  0  0  0
   43.5575   11.6596   12.1145 H   0  0  0  0  0  0  0  0  0  0  0  0
   44.9257   11.5664    9.4533 H   0  0  0  0  0  0  0  0  0  0  0  0
   45.7086   11.6511   10.8802 H   0  0  0  0  0  0  0  0  0  0  0  0
   40.3981    9.1582   10.6549 H   0  0  0  0  0  0  0  0  0  0  0  0
   41.3934   13.2857   11.3349 H   0  0  0  0  0  0  0  0  0  0  0  0
   39.1696   13.6543   12.3446 H   0  0  0  0  0  0  0  0  0  0  0  0
   38.1727    9.5314   11.6550 H   0  0  0  0  0  0  0  0  0  0  0  0
   37.5466   11.7790   12.5007 H   0  0  0  0  0  0  0  0  0  0  0  0
  2  1  1  0
  3  1  1  0
  1  4  1  0
  3  5  1  0
  6  4  2  0
  7  4  1  0
  8  7  2  0
  9  6  1  0
 10  9  2  0
  3  2  1  0
  8 10  1  0
 12 11  2  0
 13 11  2  0
 14 11  1  0
 15 11  1  0
 17 16  1  0
 18 16  1  0
 16 19  1  0
 18 20  1  0
 21 19  2  0
 22 19  1  0
 23 22  2  0
 24 21  1  0
 25 24  2  0
 18 17  1  0
 23 25  1  0
  1 26  1  6
  2 27  1  0
  2 28  1  0
  3 29  1  1
  5 30  1  0
  5 31  1  0
  6 32  1  0
  7 33  1  0
  8 34  1  0
  9 35  1  0
 10 36  1  0
 14 37  1  0
 15 38  1  0
 16 39  1  6
 17 40  1  0
 17 41  1  0
 18 42  1  1
 20 43  1  0
 20 44  1  0
 21 45  1  0
 22 46  1  0
 23 47  1  0
 24 48  1  0
 25 49  1  0
M  END
> <Uni-Dock RESULT> 
ENERGY=   -4.425  LOWER_BOUND=    6.912  UPPER_BOUND=    8.239
INTER + INTRA:          -4.425
INTER:                  -4.425
INTRA:                   0.000
UNBOUND:                 0.000

$$$$

     RDKit          3D

 49 50  0  0  0  0  0  0  0  0999 V2000
   45.9609    5.9830   11.6472 C   0  0  1  0  0  0  0  0  0  0  0  0
   45.4142    4.8099   12.4291 C   0  0  0  0  0  0  0  0  0  0  0  0
   44.4792    5.8702   11.9391 C   0  0  2  0  0  0  0  0  0  0  0  0
   46.7809    7.0464   12.3389 C   0  0  0  0  0  0  0  0  0  0  0  0
   43.5579    5.5473   10.8501 N   0  0  0  0  0  0  0  0  0  0  0  0
   46.4840    8.4105   12.1787 C   0  0  0  0  0  0  0  0  0  0  0  0
   47.8851    6.7159   13.1437 C   0  0  0  0  0  0  0  0  0  0  0  0
   48.6470    7.7019   13.7766 C   0  0  0  0  0  0  0  0  0  0  0  0
   47.2425    9.4008   12.8089 C   0  0  0  0  0  0  0  0  0  0  0  0
   48.3242    9.0448   13.6099 C   0  0  0  0  0  0  0  0  0  0  0  0
   46.1335    7.0549   12.8489 S   0  0  0  0  0  0  0  0  0  0  0  0
   47.1504    7.1056   13.8693 O   0  0  0  0  0  0  0  0  0  0  0  0
   44.7575    7.4268   13.0684 O   0  0  0  0  0  0  0  0  0  0  0  0
   46.1082    5.5730   12.2332 O   0  0  0  0  0  0  0  0  0  0  0  0
   46.6960    7.8948   11.6019 O   0  0  0  0  0  0  0  0  0  0  0  0
   45.6954    5.8679   12.5612 C   0  0  2  0  0  0  0  0  0  0  0  0
   45.0256    5.5412   11.2454 C   0  0  0  0  0  0  0  0  0  0  0  0
   44.2422    6.2261   12.3231 C   0  0  1  0  0  0  0  0  0  0  0  0
   46.7390    6.9586   12.6284 C   0  0  0  0  0  0  0  0  0  0  0  0
   43.1870    5.4953   13.0267 N   0  0  0  0  0  0  0  0  0  0  0  0
   47.8724    6.9412   11.7972 C   0  0  0  0  0  0  0  0  0  0  0  0
   46.6273    8.0159   13.5467 C   0  0  0  0  0  0  0  0  0  0  0  0
   47.5939    9.0218   13.6211 C   0  0  0  0  0  0  0  0  0  0  0  0
   48.8429    7.9446   11.8676 C   0  0  0  0  0  0  0  0  0  0  0  0
   48.7035    8.9842   12.7808 C   0  0  0  0  0  0  0  0  0  0  0  0
   46.2737    5.7581   10.6286 H   0  0  0  0  0  0  0  0  0  0  0  0
   45.5962    4.7544   13.4961 H   0  0  0  0  0  0  0  0  0  0  0  0
   45.4045    3.8451   11.9369 H   0  0  0  0  0  0  0  0  0  0  0  0
   44.0678    6.5352   12.6963 H   0  0  0  0  0  0  0  0  0  0  0  0
   43.2227    6.4004   10.4040 H   0  0  0  0  0  0  0  0  0  0  0  0
   42.7279    5.0782   11.2114 H   0  0  0  0  0  0  0  0  0  0  0  0
   45.6455    8.7052   11.5500 H   0  0  0  0  0  0  0  0  0  0  0  0
   48.1556    5.6693   13.2797 H   0  0  0  0  0  0  0  0  0  0  0  0
   49.4918    7.4187   14.3968 H   0  0  0  0  0  0  0  0  0  0  0  0
   46.9890   10.4480   12.6694 H   0  0  0  0  0  0  0  0  0  0  0  0
   48.9162    9.8127   14.1003 H   0  0  0  0  0  0  0  0  0  0  0  0
   45.2365    5.4573   11.7977 H   0  0  0  0  0  0  0  0  0  0  0  0
   47.6734    7.8063   11.6110 H   0  0  0  0  0  0  0  0  0  0  0  0
   45.8856    5.0224   13.2184 H   0  0  0  0  0  0  0  0  0  0  0  0
   45.2797    6.1270   10.3656 H   0  0  0  0  0  0  0  0  0  0  0  0
   44.8265    4.4975   11.0318 H   0  0  0  0  0  0  0  0  0  0  0  0
   44.0131    7.2768   12.1571 H   0  0  0  0  0  0  0  0  0  0  0  0
   43.4446    4.5192   13.1747 H   0  0  0  0  0  0  0  0  0  0  0  0
   42.3333    5.4787   12.4670 H   0  0  0  0  0  0  0  0  0  0  0  0
   48.0007    6.1320   11.0810 H   0  0  0  0  0  0  0  0  0  0  0  0
   45.7713    8.0510   14.2174 H   0  0  0  0  0  0  0  0  0  0  0  0
   47.4766    9.8337   14.3370 H   0  0  0  0  0  0  0  0  0  0  0  0
   49.7086    7.9090   11.2093 H   0  0  0  0  0  0  0  0  0  0  0  0
   49.4574    9.7647   12.8381 H   0  0  0  0  0  0  0  0  0  0  0  0
  2  1  1  0
  3  1  1  0
  1  4  1  0
  3  5  1  0
  6  4  2  0
  7  4  1  0
  8  7  2  0
  9  6  1  0
 10  9  2  0
  3  2  1  0
  8 10  1  0
 12 11  2  0
 13 11  2  0
 14 11  1  0
 15 11  1  0
 17 16  1  0
 18 16  1  0
 16 19  1  0
 18 20  1  0
 21 19  2  0
 22 19  1  0
 23 22  2  0
 24 21  1  0
 25 24  2  0
 18 17  1  0
 23 25  1  0
  1 26  1  6
  2 27  1  0
  2 28  1  0
  3 29  1  1
  5 30  1  0
  5 31  1  0
  6 32  1  0
  7 33  1  0
  8 34  1  0
  9 35  1  0
 10 36  1  0
 14 37  1  0
 15 38  1  0
 16 39  1  6
 17 40  1  0
 17 41  1  0
 18 42  1  1
 20 43  1  0
 20 44  1  0
 21 45  1  0
 22 46  1  0
 23 47  1  0
 24 48  1  0
 25 49  1  0
M  END
> <Uni-Dock RESULT> 
ENERGY=   -4.399  LOWER_BOUND=    3.686  UPPER_BOUND=    5.093
INTER + INTRA:          -4.399
INTER:                  -4.399
INTRA:                   0.000
UNBOUND:                 0.000

$$$$
