
     RDKit          3D

 49 50  0  0  0  0  0  0  0  0999 V2000
   45.3145    3.4517    9.5954 C   0  0  1  0  0  0  0  0  0  0  0  0
   43.8970    3.9616    9.4884 C   0  0  0  0  0  0  0  0  0  0  0  0
   44.1735    2.7023   10.2455 C   0  0  2  0  0  0  0  0  0  0  0  0
   46.0005    2.9178    8.3590 C   0  0  0  0  0  0  0  0  0  0  0  0
   44.0385    2.6998   11.7027 N   0  0  0  0  0  0  0  0  0  0  0  0
   46.3422    1.5643    8.2184 C   0  0  0  0  0  0  0  0  0  0  0  0
   46.3526    3.7815    7.3089 C   0  0  0  0  0  0  0  0  0  0  0  0
   47.0011    3.3133    6.1634 C   0  0  0  0  0  0  0  0  0  0  0  0
   46.9845    1.0865    7.0720 C   0  0  0  0  0  0  0  0  0  0  0  0
   47.3130    1.9610    6.0439 C   0  0  0  0  0  0  0  0  0  0  0  0
   45.2658    3.0320    8.3462 S   0  0  0  0  0  0  0  0  0  0  0  0
   45.3176    4.0523    7.3300 O   0  0  0  0  0  0  0  0  0  0  0  0
   44.0717    2.3036    8.6904 O   0  0  0  0  0  0  0  0  0  0  0  0
   45.8257    3.6552    9.7158 O   0  0  0  0  0  0  0  0  0  0  0  0
   46.4226    1.9756    7.9947 O   0  0  0  0  0  0  0  0  0  0  0  0
   44.5483    3.3917    8.9079 C   0  0  2  0  0  0  0  0  0  0  0  0
   44.6156    4.7389    9.5865 C   0  0  0  0  0  0  0  0  0  0  0  0
   44.6786    3.4933   10.4128 C   0  0  1  0  0  0  0  0  0  0  0  0
   45.7090    2.8515    8.1045 C   0  0  0  0  0  0  0  0  0  0  0  0
   43.5495    3.1541   11.2781 N   0  0  0  0  0  0  0  0  0  0  0  0
   46.5003    3.6743    7.2832 C   0  0  0  0  0  0  0  0  0  0  0  0
   46.0128    1.4779    8.1247 C   0  0  0  0  0  0  0  0  0  0  0  0
   47.0631    0.9511    7.3683 C   0  0  0  0  0  0  0  0  0  0  0  0
   47.5577    3.1539    6.5315 C   0  0  0  0  0  0  0  0  0  0  0  0
   47.8375    1.7909    6.5726 C   0  0  0  0  0  0  0  0  0  0  0  0
   45.9653    4.0145   10.2602 H   0  0  0  0  0  0  0  0  0  0  0  0
   43.3720    3.8623    8.5421 H   0  0  0  0  0  0  0  0  0  0  0  0
   43.6319    4.8571   10.0395 H   0  0  0  0  0  0  0  0  0  0  0  0
   43.8263    1.7935    9.7687 H   0  0  0  0  0  0  0  0  0  0  0  0
   44.6477    1.9958   12.1160 H   0  0  0  0  0  0  0  0  0  0  0  0
   44.3213    3.5927   12.1078 H   0  0  0  0  0  0  0  0  0  0  0  0
   46.1034    0.8664    9.0129 H   0  0  0  0  0  0  0  0  0  0  0  0
   46.1159    4.8400    7.3865 H   0  0  0  0  0  0  0  0  0  0  0  0
   47.2537    3.9971    5.3672 H   0  0  0  0  0  0  0  0  0  0  0  0
   47.2265    0.0298    6.9840 H   0  0  0  0  0  0  0  0  0  0  0  0
   47.8131    1.5908    5.1529 H   0  0  0  0  0  0  0  0  0  0  0  0
   45.4755    3.1026   10.4464 H   0  0  0  0  0  0  0  0  0  0  0  0
   47.1528    2.4731    7.5760 H   0  0  0  0  0  0  0  0  0  0  0  0
   43.5677    3.1213    8.5150 H   0  0  0  0  0  0  0  0  0  0  0  0
   45.5224    5.3320    9.5210 H   0  0  0  0  0  0  0  0  0  0  0  0
   43.7118    5.3352    9.6152 H   0  0  0  0  0  0  0  0  0  0  0  0
   45.6521    3.2668   10.8490 H   0  0  0  0  0  0  0  0  0  0  0  0
   42.6639    3.2263   10.7898 H   0  0  0  0  0  0  0  0  0  0  0  0
   43.6194    2.1867   11.5916 H   0  0  0  0  0  0  0  0  0  0  0  0
   46.2910    4.7431    7.2246 H   0  0  0  0  0  0  0  0  0  0  0  0
   45.4134    0.8068    8.7360 H   0  0  0  0  0  0  0  0  0  0  0  0
   47.2700   -0.1140    7.3966 H   0  0  0  0  0  0  0  0  0  0  0  0
   48.1562    3.8164    5.9074 H   0  0  0  0  0  0  0  0  0  0  0  0
   48.6549    1.3848    5.9832 H   0  0  0  0  0  0  0  0  0  0  0  0
  2  1  1  0
  3  1  1  0
  1  4  1  0
  3  5  1  0
  6  4  2  0
  7  4  1  0
  8  7  2  0
  9  6  1  0
 10  9  2  0
  3  2  1  0
  8 10  1  0
 12 11  2  0
 13 11  2  0
 14 11  1  0
 15 11  1  0
 17 16  1  0
 18 16  1  0
 16 19  1  0
 18 20  1  0
 21 19  2  0
 22 19  1  0
 23 22  2  0
 24 21  1  0
 25 24  2  0
 18 17  1  0
 23 25  1  0
  1 26  1  6
  2 27  1  0
  2 28  1  0
  3 29  1  1
  5 30  1  0
  5 31  1  0
  6 32  1  0
  7 33  1  0
  8 34  1  0
  9 35  1  0
 10 36  1  0
 14 37  1  0
 15 38  1  0
 16 39  1  1
 17 40  1  0
 17 41  1  0
 18 42  1  6
 20 43  1  0
 20 44  1  0
 21 45  1  0
 22 46  1  0
 23 47  1  0
 24 48  1  0
 25 49  1  0
M  END
> <Uni-Dock RESULT> 
ENERGY=  -10.212  LOWER_BOUND=    0.000  UPPER_BOUND=    0.000
INTER + INTRA:         -10.212
INTER:                 -10.212
INTRA:                   0.000
UNBOUND:                 0.000

$$$$

     RDKit          3D

 49 50  0  0  0  0  0  0  0  0999 V2000
   43.5693    3.8266   10.9561 C   0  0  1  0  0  0  0  0  0  0  0  0
   43.9632    3.4544   12.3658 C   0  0  0  0  0  0  0  0  0  0  0  0
   43.8212    4.8959   11.9950 C   0  0  2  0  0  0  0  0  0  0  0  0
   44.5465    3.5817    9.8294 C   0  0  0  0  0  0  0  0  0  0  0  0
   42.7005    5.6661   12.5358 N   0  0  0  0  0  0  0  0  0  0  0  0
   45.1453    4.6315    9.1168 C   0  0  0  0  0  0  0  0  0  0  0  0
   44.8651    2.2725    9.4329 C   0  0  0  0  0  0  0  0  0  0  0  0
   45.7535    2.0221    8.3840 C   0  0  0  0  0  0  0  0  0  0  0  0
   46.0411    4.3893    8.0709 C   0  0  0  0  0  0  0  0  0  0  0  0
   46.3460    3.0843    7.7052 C   0  0  0  0  0  0  0  0  0  0  0  0
   44.7846    3.5386   10.5326 S   0  0  0  0  0  0  0  0  0  0  0  0
   45.1189    2.1386   10.4636 O   0  0  0  0  0  0  0  0  0  0  0  0
   45.2933    4.4354   11.5384 O   0  0  0  0  0  0  0  0  0  0  0  0
   43.1853    3.6738   10.5735 O   0  0  0  0  0  0  0  0  0  0  0  0
   45.1077    4.1589    9.0874 O   0  0  0  0  0  0  0  0  0  0  0  0
   44.4419    3.5837   11.4493 C   0  0  2  0  0  0  0  0  0  0  0  0
   43.2571    2.7850   11.9374 C   0  0  0  0  0  0  0  0  0  0  0  0
   43.1345    4.2684   11.7867 C   0  0  1  0  0  0  0  0  0  0  0  0
   44.8926    3.5299   10.0075 C   0  0  0  0  0  0  0  0  0  0  0  0
   43.0219    5.0996   12.9846 N   0  0  0  0  0  0  0  0  0  0  0  0
   44.8784    2.3381    9.2611 C   0  0  0  0  0  0  0  0  0  0  0  0
   45.3854    4.6835    9.3705 C   0  0  0  0  0  0  0  0  0  0  0  0
   45.8342    4.6519    8.0475 C   0  0  0  0  0  0  0  0  0  0  0  0
   45.3177    2.3028    7.9346 C   0  0  0  0  0  0  0  0  0  0  0  0
   45.7981    3.4603    7.3285 C   0  0  0  0  0  0  0  0  0  0  0  0
   42.5304    3.6395   10.6957 H   0  0  0  0  0  0  0  0  0  0  0  0
   44.9701    3.0906   12.5523 H   0  0  0  0  0  0  0  0  0  0  0  0
   43.2132    3.0010   13.0043 H   0  0  0  0  0  0  0  0  0  0  0  0
   44.7506    5.4497   11.9382 H   0  0  0  0  0  0  0  0  0  0  0  0
   42.4560    6.4293   11.9069 H   0  0  0  0  0  0  0  0  0  0  0  0
   41.8606    5.0938   12.6272 H   0  0  0  0  0  0  0  0  0  0  0  0
   44.9139    5.6575    9.3798 H   0  0  0  0  0  0  0  0  0  0  0  0
   44.4113    1.4321    9.9527 H   0  0  0  0  0  0  0  0  0  0  0  0
   45.9873    1.0060    8.1042 H   0  0  0  0  0  0  0  0  0  0  0  0
   46.5004    5.2223    7.5436 H   0  0  0  0  0  0  0  0  0  0  0  0
   47.0414    2.8950    6.8918 H   0  0  0  0  0  0  0  0  0  0  0  0
   42.9817    4.5523   10.9592 H   0  0  0  0  0  0  0  0  0  0  0  0
   44.9405    3.4579    8.4265 H   0  0  0  0  0  0  0  0  0  0  0  0
   45.2544    3.6905   12.1685 H   0  0  0  0  0  0  0  0  0  0  0  0
   42.6949    2.1716   11.2402 H   0  0  0  0  0  0  0  0  0  0  0  0
   43.3068    2.3674   12.9356 H   0  0  0  0  0  0  0  0  0  0  0  0
   42.5157    4.6072   10.9551 H   0  0  0  0  0  0  0  0  0  0  0  0
   43.7193    4.8576   13.6797 H   0  0  0  0  0  0  0  0  0  0  0  0
   43.1829    6.0794   12.7544 H   0  0  0  0  0  0  0  0  0  0  0  0
   44.5191    1.4160    9.7195 H   0  0  0  0  0  0  0  0  0  0  0  0
   45.4267    5.6214    9.9202 H   0  0  0  0  0  0  0  0  0  0  0  0
   46.2171    5.5553    7.5836 H   0  0  0  0  0  0  0  0  0  0  0  0
   45.2910    1.3659    7.3798 H   0  0  0  0  0  0  0  0  0  0  0  0
   46.1461    3.4320    6.2997 H   0  0  0  0  0  0  0  0  0  0  0  0
  2  1  1  0
  3  1  1  0
  1  4  1  0
  3  5  1  0
  6  4  2  0
  7  4  1  0
  8  7  2  0
  9  6  1  0
 10  9  2  0
  3  2  1  0
  8 10  1  0
 12 11  2  0
 13 11  2  0
 14 11  1  0
 15 11  1  0
 17 16  1  0
 18 16  1  0
 16 19  1  0
 18 20  1  0
 21 19  2  0
 22 19  1  0
 23 22  2  0
 24 21  1  0
 25 24  2  0
 18 17  1  0
 23 25  1  0
  1 26  1  6
  2 27  1  0
  2 28  1  0
  3 29  1  1
  5 30  1  0
  5 31  1  0
  6 32  1  0
  7 33  1  0
  8 34  1  0
  9 35  1  0
 10 36  1  0
 14 37  1  0
 15 38  1  0
 16 39  1  1
 17 40  1  0
 17 41  1  0
 18 42  1  6
 20 43  1  0
 20 44  1  0
 21 45  1  0
 22 46  1  0
 23 47  1  0
 24 48  1  0
 25 49  1  0
M  END
> <Uni-Dock RESULT> 
ENERGY=   -8.605  LOWER_BOUND=    1.643  UPPER_BOUND=    2.954
INTER + INTRA:          -8.605
INTER:                  -8.605
INTRA:                   0.000
UNBOUND:                 0.000

$$$$

     RDKit          3D

 49 50  0  0  0  0  0  0  0  0999 V2000
   44.5320    4.6975   11.2846 C   0  0  1  0  0  0  0  0  0  0  0  0
   43.3361    5.6194   11.3039 C   0  0  0  0  0  0  0  0  0  0  0  0
   43.2927    4.3377   12.0724 C   0  0  2  0  0  0  0  0  0  0  0  0
   44.8850    3.9756   10.0044 C   0  0  0  0  0  0  0  0  0  0  0  0
   43.3202    4.3799   13.5351 N   0  0  0  0  0  0  0  0  0  0  0  0
   44.7783    2.5824    9.8772 C   0  0  0  0  0  0  0  0  0  0  0  0
   45.3703    4.6866    8.8947 C   0  0  0  0  0  0  0  0  0  0  0  0
   45.7176    4.0389    7.7064 C   0  0  0  0  0  0  0  0  0  0  0  0
   45.1167    1.9276    8.6890 C   0  0  0  0  0  0  0  0  0  0  0  0
   45.5854    2.6562    7.6032 C   0  0  0  0  0  0  0  0  0  0  0  0
   44.2236    4.3108   10.0621 S   0  0  0  0  0  0  0  0  0  0  0  0
   44.4766    5.2634    9.0109 O   0  0  0  0  0  0  0  0  0  0  0  0
   42.9078    3.9869   10.5505 O   0  0  0  0  0  0  0  0  0  0  0  0
   45.0908    4.7336   11.3454 O   0  0  0  0  0  0  0  0  0  0  0  0
   44.9565    2.9484    9.6323 O   0  0  0  0  0  0  0  0  0  0  0  0
   43.7153    4.8754   10.6806 C   0  0  2  0  0  0  0  0  0  0  0  0
   44.2644    6.1374   11.3016 C   0  0  0  0  0  0  0  0  0  0  0  0
   44.0307    4.9347   12.1601 C   0  0  1  0  0  0  0  0  0  0  0  0
   44.5617    4.0019    9.7831 C   0  0  0  0  0  0  0  0  0  0  0  0
   42.9515    4.9620   13.1465 N   0  0  0  0  0  0  0  0  0  0  0  0
   45.4744    4.5390    8.8578 C   0  0  0  0  0  0  0  0  0  0  0  0
   44.4302    2.6016    9.8204 C   0  0  0  0  0  0  0  0  0  0  0  0
   45.1813    1.7751    8.9804 C   0  0  0  0  0  0  0  0  0  0  0  0
   46.2346    3.7164    8.0216 C   0  0  0  0  0  0  0  0  0  0  0  0
   46.0859    2.3336    8.0816 C   0  0  0  0  0  0  0  0  0  0  0  0
   45.3912    5.0334   11.8601 H   0  0  0  0  0  0  0  0  0  0  0  0
   42.7078    5.6851   10.4196 H   0  0  0  0  0  0  0  0  0  0  0  0
   43.4187    6.5541   11.8473 H   0  0  0  0  0  0  0  0  0  0  0  0
   42.6348    3.5794   11.6652 H   0  0  0  0  0  0  0  0  0  0  0  0
   43.7249    3.5231   13.9089 H   0  0  0  0  0  0  0  0  0  0  0  0
   43.9046    5.1428   13.8781 H   0  0  0  0  0  0  0  0  0  0  0  0
   44.4235    1.9938   10.7157 H   0  0  0  0  0  0  0  0  0  0  0  0
   45.4791    5.7666    8.9588 H   0  0  0  0  0  0  0  0  0  0  0  0
   46.0809    4.6100    6.8654 H   0  0  0  0  0  0  0  0  0  0  0  0
   45.0124    0.8476    8.6139 H   0  0  0  0  0  0  0  0  0  0  0  0
   45.8496    2.1480    6.6796 H   0  0  0  0  0  0  0  0  0  0  0  0
   44.6684    4.3174   12.1265 H   0  0  0  0  0  0  0  0  0  0  0  0
   45.7548    3.1957    9.1248 H   0  0  0  0  0  0  0  0  0  0  0  0
   42.6630    4.9198   10.3986 H   0  0  0  0  0  0  0  0  0  0  0  0
   45.2969    6.4218   11.1240 H   0  0  0  0  0  0  0  0  0  0  0  0
   43.5954    6.9834   11.4008 H   0  0  0  0  0  0  0  0  0  0  0  0
   44.9288    4.4199   12.5032 H   0  0  0  0  0  0  0  0  0  0  0  0
   42.0837    5.3029   12.7481 H   0  0  0  0  0  0  0  0  0  0  0  0
   42.7546    4.0209   13.4848 H   0  0  0  0  0  0  0  0  0  0  0  0
   45.5976    5.6201    8.7835 H   0  0  0  0  0  0  0  0  0  0  0  0
   43.7230    2.1493   10.5122 H   0  0  0  0  0  0  0  0  0  0  0  0
   45.0536    0.6982    9.0247 H   0  0  0  0  0  0  0  0  0  0  0  0
   46.9369    4.1607    7.3175 H   0  0  0  0  0  0  0  0  0  0  0  0
   46.6716    1.6940    7.4271 H   0  0  0  0  0  0  0  0  0  0  0  0
  2  1  1  0
  3  1  1  0
  1  4  1  0
  3  5  1  0
  6  4  2  0
  7  4  1  0
  8  7  2  0
  9  6  1  0
 10  9  2  0
  3  2  1  0
  8 10  1  0
 12 11  2  0
 13 11  2  0
 14 11  1  0
 15 11  1  0
 17 16  1  0
 18 16  1  0
 16 19  1  0
 18 20  1  0
 21 19  2  0
 22 19  1  0
 23 22  2  0
 24 21  1  0
 25 24  2  0
 18 17  1  0
 23 25  1  0
  1 26  1  6
  2 27  1  0
  2 28  1  0
  3 29  1  1
  5 30  1  0
  5 31  1  0
  6 32  1  0
  7 33  1  0
  8 34  1  0
  9 35  1  0
 10 36  1  0
 14 37  1  0
 15 38  1  0
 16 39  1  1
 17 40  1  0
 17 41  1  0
 18 42  1  6
 20 43  1  0
 20 44  1  0
 21 45  1  0
 22 46  1  0
 23 47  1  0
 24 48  1  0
 25 49  1  0
M  END
> <Uni-Dock RESULT> 
ENERGY=   -7.928  LOWER_BOUND=    1.697  UPPER_BOUND=    2.392
INTER + INTRA:          -7.928
INTER:                  -7.928
INTRA:                   0.000
UNBOUND:                 0.000

$$$$

     RDKit          3D

 49 50  0  0  0  0  0  0  0  0999 V2000
   45.3780    3.3962    9.4350 C   0  0  1  0  0  0  0  0  0  0  0  0
   44.6216    2.6788    8.3423 C   0  0  0  0  0  0  0  0  0  0  0  0
   45.3189    3.9653    8.0355 C   0  0  2  0  0  0  0  0  0  0  0  0
   44.6075    4.0274   10.5718 C   0  0  0  0  0  0  0  0  0  0  0  0
   46.5130    3.9472    7.1895 N   0  0  0  0  0  0  0  0  0  0  0  0
   44.5532    5.4170   10.7582 C   0  0  0  0  0  0  0  0  0  0  0  0
   43.9382    3.2267   11.5117 C   0  0  0  0  0  0  0  0  0  0  0  0
   43.2327    3.7874   12.5795 C   0  0  0  0  0  0  0  0  0  0  0  0
   43.8432    5.9862   11.8199 C   0  0  0  0  0  0  0  0  0  0  0  0
   43.1821    5.1712   12.7300 C   0  0  0  0  0  0  0  0  0  0  0  0
   44.2411    3.8040    9.9645 S   0  0  0  0  0  0  0  0  0  0  0  0
   43.4642    2.8033   10.6510 O   0  0  0  0  0  0  0  0  0  0  0  0
   43.8927    4.3443    8.6755 O   0  0  0  0  0  0  0  0  0  0  0  0
   45.7507    3.2719    9.8386 O   0  0  0  0  0  0  0  0  0  0  0  0
   44.4304    5.0226   10.9927 O   0  0  0  0  0  0  0  0  0  0  0  0
   44.3989    3.3403    9.1161 C   0  0  2  0  0  0  0  0  0  0  0  0
   45.1209    2.0185    9.0093 C   0  0  0  0  0  0  0  0  0  0  0  0
   45.7735    3.2593    8.4868 C   0  0  1  0  0  0  0  0  0  0  0  0
   44.2379    4.0492   10.4413 C   0  0  0  0  0  0  0  0  0  0  0  0
   45.9375    3.4246    7.0431 N   0  0  0  0  0  0  0  0  0  0  0  0
   43.9809    3.3549   11.6370 C   0  0  0  0  0  0  0  0  0  0  0  0
   44.3024    5.4528   10.5121 C   0  0  0  0  0  0  0  0  0  0  0  0
   44.1284    6.1318   11.7210 C   0  0  0  0  0  0  0  0  0  0  0  0
   43.8150    4.0286   12.8505 C   0  0  0  0  0  0  0  0  0  0  0  0
   43.8866    5.4183   12.8917 C   0  0  0  0  0  0  0  0  0  0  0  0
   46.3181    2.9376    9.7321 H   0  0  0  0  0  0  0  0  0  0  0  0
   43.5351    2.6981    8.3543 H   0  0  0  0  0  0  0  0  0  0  0  0
   45.0346    1.7536    7.9561 H   0  0  0  0  0  0  0  0  0  0  0  0
   44.6659    4.8115    7.8589 H   0  0  0  0  0  0  0  0  0  0  0  0
   47.1195    4.7348    7.4119 H   0  0  0  0  0  0  0  0  0  0  0  0
   47.0708    3.1069    7.3449 H   0  0  0  0  0  0  0  0  0  0  0  0
   45.0700    6.0708   10.0649 H   0  0  0  0  0  0  0  0  0  0  0  0
   43.9677    2.1447   11.4084 H   0  0  0  0  0  0  0  0  0  0  0  0
   42.7203    3.1495   13.2836 H   0  0  0  0  0  0  0  0  0  0  0  0
   43.8075    7.0673   11.9333 H   0  0  0  0  0  0  0  0  0  0  0  0
   42.6308    5.6126   13.5560 H   0  0  0  0  0  0  0  0  0  0  0  0
   46.1679    3.7654    9.1009 H   0  0  0  0  0  0  0  0  0  0  0  0
   44.4672    4.6406   11.8921 H   0  0  0  0  0  0  0  0  0  0  0  0
   43.5528    3.4601    8.4388 H   0  0  0  0  0  0  0  0  0  0  0  0
   45.5581    1.5686    9.8952 H   0  0  0  0  0  0  0  0  0  0  0  0
   44.7430    1.2930    8.2994 H   0  0  0  0  0  0  0  0  0  0  0  0
   46.6161    3.6296    9.0717 H   0  0  0  0  0  0  0  0  0  0  0  0
   45.0817    3.2199    6.5395 H   0  0  0  0  0  0  0  0  0  0  0  0
   46.1706    4.3914    6.8198 H   0  0  0  0  0  0  0  0  0  0  0  0
   43.9071    2.2669   11.6266 H   0  0  0  0  0  0  0  0  0  0  0  0
   44.4840    6.0260    9.6055 H   0  0  0  0  0  0  0  0  0  0  0  0
   44.1752    7.2159   11.7451 H   0  0  0  0  0  0  0  0  0  0  0  0
   43.6213    3.4639   13.7616 H   0  0  0  0  0  0  0  0  0  0  0  0
   43.7509    5.9428   13.8334 H   0  0  0  0  0  0  0  0  0  0  0  0
  2  1  1  0
  3  1  1  0
  1  4  1  0
  3  5  1  0
  6  4  2  0
  7  4  1  0
  8  7  2  0
  9  6  1  0
 10  9  2  0
  3  2  1  0
  8 10  1  0
 12 11  2  0
 13 11  2  0
 14 11  1  0
 15 11  1  0
 17 16  1  0
 18 16  1  0
 16 19  1  0
 18 20  1  0
 21 19  2  0
 22 19  1  0
 23 22  2  0
 24 21  1  0
 25 24  2  0
 18 17  1  0
 23 25  1  0
  1 26  1  6
  2 27  1  0
  2 28  1  0
  3 29  1  1
  5 30  1  0
  5 31  1  0
  6 32  1  0
  7 33  1  0
  8 34  1  0
  9 35  1  0
 10 36  1  0
 14 37  1  0
 15 38  1  0
 16 39  1  1
 17 40  1  0
 17 41  1  0
 18 42  1  6
 20 43  1  0
 20 44  1  0
 21 45  1  0
 22 46  1  0
 23 47  1  0
 24 48  1  0
 25 49  1  0
M  END
> <Uni-Dock RESULT> 
ENERGY=   -7.427  LOWER_BOUND=    2.279  UPPER_BOUND=    4.899
INTER + INTRA:          -7.427
INTER:                  -7.427
INTRA:                   0.000
UNBOUND:                 0.000

$$$$
