
     RDKit          3D

 49 50  0  0  0  0  0  0  0  0999 V2000
   45.6868    2.6408    7.5227 C   0  0  1  0  0  0  0  0  0  0  0  0
   46.5504    3.5084    6.6339 C   0  0  0  0  0  0  0  0  0  0  0  0
   47.1819    2.4095    7.4320 C   0  0  2  0  0  0  0  0  0  0  0  0
   45.0927    3.2035    8.7932 C   0  0  0  0  0  0  0  0  0  0  0  0
   47.7006    1.2310    6.7385 N   0  0  0  0  0  0  0  0  0  0  0  0
   45.2335    2.5335   10.0201 C   0  0  0  0  0  0  0  0  0  0  0  0
   44.3528    4.3978    8.7920 C   0  0  0  0  0  0  0  0  0  0  0  0
   43.7924    4.9104    9.9652 C   0  0  0  0  0  0  0  0  0  0  0  0
   44.6753    3.0386   11.1978 C   0  0  0  0  0  0  0  0  0  0  0  0
   43.9555    4.2300   11.1693 C   0  0  0  0  0  0  0  0  0  0  0  0
   45.4438    3.5354    8.4853 S   0  0  0  0  0  0  0  0  0  0  0  0
   46.5069    4.4774    8.2426 O   0  0  0  0  0  0  0  0  0  0  0  0
   44.0515    3.8169    8.2440 O   0  0  0  0  0  0  0  0  0  0  0  0
   45.5506    3.0318   10.0049 O   0  0  0  0  0  0  0  0  0  0  0  0
   45.8337    2.1985    7.6895 O   0  0  0  0  0  0  0  0  0  0  0  0
   44.5577    3.6804    8.9552 C   0  0  2  0  0  0  0  0  0  0  0  0
   44.9073    4.7912    9.9192 C   0  0  0  0  0  0  0  0  0  0  0  0
   44.5022    3.4507   10.4504 C   0  0  1  0  0  0  0  0  0  0  0  0
   45.6387    3.0348    8.1207 C   0  0  0  0  0  0  0  0  0  0  0  0
   43.2044    3.2925   11.1067 N   0  0  0  0  0  0  0  0  0  0  0  0
   46.3978    3.7860    7.2090 C   0  0  0  0  0  0  0  0  0  0  0  0
   45.8956    1.6557    8.1914 C   0  0  0  0  0  0  0  0  0  0  0  0
   46.8719    1.0535    7.3931 C   0  0  0  0  0  0  0  0  0  0  0  0
   47.3720    3.1895    6.4045 C   0  0  0  0  0  0  0  0  0  0  0  0
   47.6073    1.8202    6.4964 C   0  0  0  0  0  0  0  0  0  0  0  0
   45.0504    1.9243    7.0079 H   0  0  0  0  0  0  0  0  0  0  0  0
   46.7643    4.5272    6.9371 H   0  0  0  0  0  0  0  0  0  0  0  0
   46.4595    3.3875    5.5600 H   0  0  0  0  0  0  0  0  0  0  0  0
   47.7929    2.7271    8.2790 H   0  0  0  0  0  0  0  0  0  0  0  0
   47.0806    0.9345    5.9821 H   0  0  0  0  0  0  0  0  0  0  0  0
   47.7635    0.4375    7.3800 H   0  0  0  0  0  0  0  0  0  0  0  0
   45.7895    1.5997   10.0596 H   0  0  0  0  0  0  0  0  0  0  0  0
   44.2125    4.9404    7.8597 H   0  0  0  0  0  0  0  0  0  0  0  0
   43.2293    5.8400    9.9361 H   0  0  0  0  0  0  0  0  0  0  0  0
   44.8032    2.4990   12.1361 H   0  0  0  0  0  0  0  0  0  0  0  0
   43.5214    4.6261   12.0833 H   0  0  0  0  0  0  0  0  0  0  0  0
   44.7011    2.6000   10.2286 H   0  0  0  0  0  0  0  0  0  0  0  0
   46.8086    2.1890    7.6003 H   0  0  0  0  0  0  0  0  0  0  0  0
   43.5972    3.7676    8.4504 H   0  0  0  0  0  0  0  0  0  0  0  0
   44.2180    5.6238    9.9962 H   0  0  0  0  0  0  0  0  0  0  0  0
   45.9463    5.0711   10.0423 H   0  0  0  0  0  0  0  0  0  0  0  0
   45.2993    2.8536   10.8929 H   0  0  0  0  0  0  0  0  0  0  0  0
   43.2725    3.5238   12.0969 H   0  0  0  0  0  0  0  0  0  0  0  0
   42.5074    3.9252   10.7213 H   0  0  0  0  0  0  0  0  0  0  0  0
   46.2219    4.8571    7.1192 H   0  0  0  0  0  0  0  0  0  0  0  0
   45.3202    1.0400    8.8790 H   0  0  0  0  0  0  0  0  0  0  0  0
   47.0496   -0.0153    7.4681 H   0  0  0  0  0  0  0  0  0  0  0  0
   47.9403    3.7932    5.7042 H   0  0  0  0  0  0  0  0  0  0  0  0
   48.3613    1.3525    5.8691 H   0  0  0  0  0  0  0  0  0  0  0  0
  2  1  1  0
  3  1  1  0
  1  4  1  0
  3  5  1  0
  6  4  2  0
  7  4  1  0
  8  7  2  0
  9  6  1  0
 10  9  2  0
  3  2  1  0
  8 10  1  0
 12 11  2  0
 13 11  2  0
 14 11  1  0
 15 11  1  0
 17 16  1  0
 18 16  1  0
 16 19  1  0
 18 20  1  0
 21 19  2  0
 22 19  1  0
 23 22  2  0
 24 21  1  0
 25 24  2  0
 18 17  1  0
 23 25  1  0
  1 26  1  6
  2 27  1  0
  2 28  1  0
  3 29  1  1
  5 30  1  0
  5 31  1  0
  6 32  1  0
  7 33  1  0
  8 34  1  0
  9 35  1  0
 10 36  1  0
 14 37  1  0
 15 38  1  0
 16 39  1  6
 17 40  1  0
 17 41  1  0
 18 42  1  1
 20 43  1  0
 20 44  1  0
 21 45  1  0
 22 46  1  0
 23 47  1  0
 24 48  1  0
 25 49  1  0
M  END
> <Uni-Dock RESULT> 
ENERGY=   -9.123  LOWER_BOUND=    0.000  UPPER_BOUND=    0.000
INTER + INTRA:          -9.123
INTER:                  -9.123
INTRA:                   0.000
UNBOUND:                 0.000

$$$$

     RDKit          3D

 49 50  0  0  0  0  0  0  0  0999 V2000
   43.4846    3.8654   10.8383 C   0  0  1  0  0  0  0  0  0  0  0  0
   43.6469    3.2066   12.1904 C   0  0  0  0  0  0  0  0  0  0  0  0
   43.9715    4.6603   12.0334 C   0  0  2  0  0  0  0  0  0  0  0  0
   44.4413    3.5444    9.7135 C   0  0  0  0  0  0  0  0  0  0  0  0
   43.1005    5.6573   12.6548 N   0  0  0  0  0  0  0  0  0  0  0  0
   45.0784    4.5650    8.9878 C   0  0  0  0  0  0  0  0  0  0  0  0
   44.7064    2.2189    9.3303 C   0  0  0  0  0  0  0  0  0  0  0  0
   45.5811    1.9235    8.2811 C   0  0  0  0  0  0  0  0  0  0  0  0
   45.9537    4.2782    7.9364 C   0  0  0  0  0  0  0  0  0  0  0  0
   46.2060    2.9550    7.5848 C   0  0  0  0  0  0  0  0  0  0  0  0
   44.5365    3.3113   10.2281 S   0  0  0  0  0  0  0  0  0  0  0  0
   45.3042    2.8795   11.3686 O   0  0  0  0  0  0  0  0  0  0  0  0
   43.8747    2.4107    9.3187 O   0  0  0  0  0  0  0  0  0  0  0  0
   45.4585    4.2699    9.3307 O   0  0  0  0  0  0  0  0  0  0  0  0
   43.4528    4.3561   10.7816 O   0  0  0  0  0  0  0  0  0  0  0  0
   44.5602    2.9666    9.2754 C   0  0  2  0  0  0  0  0  0  0  0  0
   45.9868    2.4779    9.1684 C   0  0  0  0  0  0  0  0  0  0  0  0
   45.5284    3.6165    8.3102 C   0  0  1  0  0  0  0  0  0  0  0  0
   44.1032    3.7017   10.5133 C   0  0  0  0  0  0  0  0  0  0  0  0
   45.3541    3.4162    6.8716 N   0  0  0  0  0  0  0  0  0  0  0  0
   44.1435    3.0906   11.7769 C   0  0  0  0  0  0  0  0  0  0  0  0
   43.5809    5.0037   10.4432 C   0  0  0  0  0  0  0  0  0  0  0  0
   43.1255    5.6697   11.5843 C   0  0  0  0  0  0  0  0  0  0  0  0
   43.6855    3.7489   12.9210 C   0  0  0  0  0  0  0  0  0  0  0  0
   43.1741    5.0403   12.8229 C   0  0  0  0  0  0  0  0  0  0  0  0
   42.4597    4.0424   10.5197 H   0  0  0  0  0  0  0  0  0  0  0  0
   44.4770    2.5278   12.3510 H   0  0  0  0  0  0  0  0  0  0  0  0
   42.7500    2.9277   12.7325 H   0  0  0  0  0  0  0  0  0  0  0  0
   45.0318    4.9177   12.0688 H   0  0  0  0  0  0  0  0  0  0  0  0
   42.1140    5.4072   12.5623 H   0  0  0  0  0  0  0  0  0  0  0  0
   43.2071    6.5629   12.1926 H   0  0  0  0  0  0  0  0  0  0  0  0
   44.8896    5.6042    9.2468 H   0  0  0  0  0  0  0  0  0  0  0  0
   44.2241    1.4010    9.8610 H   0  0  0  0  0  0  0  0  0  0  0  0
   45.7722    0.8883    8.0096 H   0  0  0  0  0  0  0  0  0  0  0  0
   46.4363    5.0903    7.3929 H   0  0  0  0  0  0  0  0  0  0  0  0
   46.8869    2.7286    6.7688 H   0  0  0  0  0  0  0  0  0  0  0  0
   45.0276    4.3517    8.4555 H   0  0  0  0  0  0  0  0  0  0  0  0
   43.8187    4.7448   11.6024 H   0  0  0  0  0  0  0  0  0  0  0  0
   43.7995    2.3281    8.8298 H   0  0  0  0  0  0  0  0  0  0  0  0
   46.1515    1.5060    8.7185 H   0  0  0  0  0  0  0  0  0  0  0  0
   46.6835    2.7154    9.9629 H   0  0  0  0  0  0  0  0  0  0  0  0
   45.9147    4.5997    8.5781 H   0  0  0  0  0  0  0  0  0  0  0  0
   46.2341    3.5649    6.3794 H   0  0  0  0  0  0  0  0  0  0  0  0
   45.0728    2.4630    6.6550 H   0  0  0  0  0  0  0  0  0  0  0  0
   44.5340    2.0782   11.8706 H   0  0  0  0  0  0  0  0  0  0  0  0
   43.5246    5.5052    9.4796 H   0  0  0  0  0  0  0  0  0  0  0  0
   42.7261    6.6763   11.5011 H   0  0  0  0  0  0  0  0  0  0  0  0
   43.7232    3.2506   13.8844 H   0  0  0  0  0  0  0  0  0  0  0  0
   42.8131    5.5533   13.7101 H   0  0  0  0  0  0  0  0  0  0  0  0
  2  1  1  0
  3  1  1  0
  1  4  1  0
  3  5  1  0
  6  4  2  0
  7  4  1  0
  8  7  2  0
  9  6  1  0
 10  9  2  0
  3  2  1  0
  8 10  1  0
 12 11  2  0
 13 11  2  0
 14 11  1  0
 15 11  1  0
 17 16  1  0
 18 16  1  0
 16 19  1  0
 18 20  1  0
 21 19  2  0
 22 19  1  0
 23 22  2  0
 24 21  1  0
 25 24  2  0
 18 17  1  0
 23 25  1  0
  1 26  1  6
  2 27  1  0
  2 28  1  0
  3 29  1  1
  5 30  1  0
  5 31  1  0
  6 32  1  0
  7 33  1  0
  8 34  1  0
  9 35  1  0
 10 36  1  0
 14 37  1  0
 15 38  1  0
 16 39  1  6
 17 40  1  0
 17 41  1  0
 18 42  1  1
 20 43  1  0
 20 44  1  0
 21 45  1  0
 22 46  1  0
 23 47  1  0
 24 48  1  0
 25 49  1  0
M  END
> <Uni-Dock RESULT> 
ENERGY=   -8.033  LOWER_BOUND=    1.507  UPPER_BOUND=    4.663
INTER + INTRA:          -8.033
INTER:                  -8.033
INTRA:                   0.000
UNBOUND:                 0.000

$$$$

     RDKit          3D

 49 50  0  0  0  0  0  0  0  0999 V2000
   44.5113    4.6837   11.2693 C   0  0  1  0  0  0  0  0  0  0  0  0
   43.5997    5.8889   11.1961 C   0  0  0  0  0  0  0  0  0  0  0  0
   43.1077    4.6284   11.8383 C   0  0  2  0  0  0  0  0  0  0  0  0
   44.8434    3.9013   10.0198 C   0  0  0  0  0  0  0  0  0  0  0  0
   42.9043    4.5973   13.2862 N   0  0  0  0  0  0  0  0  0  0  0  0
   44.7004    2.5042    9.9778 C   0  0  0  0  0  0  0  0  0  0  0  0
   45.3355    4.5340    8.8660 C   0  0  0  0  0  0  0  0  0  0  0  0
   45.6550    3.8079    7.7154 C   0  0  0  0  0  0  0  0  0  0  0  0
   45.0186    1.7704    8.8316 C   0  0  0  0  0  0  0  0  0  0  0  0
   45.4947    2.4246    7.6986 C   0  0  0  0  0  0  0  0  0  0  0  0
   44.4709    4.3348    9.9799 S   0  0  0  0  0  0  0  0  0  0  0  0
   43.2797    5.0272    9.5579 O   0  0  0  0  0  0  0  0  0  0  0  0
   45.8010    4.6985    9.5622 O   0  0  0  0  0  0  0  0  0  0  0  0
   44.2970    2.7760    9.6423 O   0  0  0  0  0  0  0  0  0  0  0  0
   44.4348    4.3087   11.5832 O   0  0  0  0  0  0  0  0  0  0  0  0
   45.2557    4.0174    9.4228 C   0  0  2  0  0  0  0  0  0  0  0  0
   44.5957    3.7761    8.0844 C   0  0  0  0  0  0  0  0  0  0  0  0
   45.1902    2.6242    8.8346 C   0  0  1  0  0  0  0  0  0  0  0  0
   44.4170    4.3815   10.6252 C   0  0  0  0  0  0  0  0  0  0  0  0
   46.4143    1.9923    8.3424 N   0  0  0  0  0  0  0  0  0  0  0  0
   43.6322    5.5458   10.6373 C   0  0  0  0  0  0  0  0  0  0  0  0
   44.4237    3.5963   11.7899 C   0  0  0  0  0  0  0  0  0  0  0  0
   43.6748    3.9531   12.9146 C   0  0  0  0  0  0  0  0  0  0  0  0
   42.8849    5.9107   11.7600 C   0  0  0  0  0  0  0  0  0  0  0  0
   42.9085    5.1129   12.9008 C   0  0  0  0  0  0  0  0  0  0  0  0
   45.3261    4.7514   11.9869 H   0  0  0  0  0  0  0  0  0  0  0  0
   43.1622    6.1630   10.2427 H   0  0  0  0  0  0  0  0  0  0  0  0
   43.8293    6.7407   11.8268 H   0  0  0  0  0  0  0  0  0  0  0  0
   42.3580    4.0689   11.2756 H   0  0  0  0  0  0  0  0  0  0  0  0
   43.6487    5.0906   13.7829 H   0  0  0  0  0  0  0  0  0  0  0  0
   42.9251    3.6346   13.6295 H   0  0  0  0  0  0  0  0  0  0  0  0
   44.3333    1.9769   10.8552 H   0  0  0  0  0  0  0  0  0  0  0  0
   45.4702    5.6134    8.8627 H   0  0  0  0  0  0  0  0  0  0  0  0
   46.0286    4.3242    6.8346 H   0  0  0  0  0  0  0  0  0  0  0  0
   44.8948    0.6875    8.8265 H   0  0  0  0  0  0  0  0  0  0  0  0
   45.7418    1.8573    6.8055 H   0  0  0  0  0  0  0  0  0  0  0  0
   45.1840    2.3656    9.6980 H   0  0  0  0  0  0  0  0  0  0  0  0
   43.4956    4.3723   11.8524 H   0  0  0  0  0  0  0  0  0  0  0  0
   46.2310    4.5003    9.3969 H   0  0  0  0  0  0  0  0  0  0  0  0
   45.0994    4.1522    7.2018 H   0  0  0  0  0  0  0  0  0  0  0  0
   43.5152    3.8101    8.0187 H   0  0  0  0  0  0  0  0  0  0  0  0
   44.4791    1.9283    9.2793 H   0  0  0  0  0  0  0  0  0  0  0  0
   46.1950    1.2698    7.6580 H   0  0  0  0  0  0  0  0  0  0  0  0
   47.0147    2.6574    7.8610 H   0  0  0  0  0  0  0  0  0  0  0  0
   43.6078    6.1850    9.7557 H   0  0  0  0  0  0  0  0  0  0  0  0
   45.0279    2.6925   11.8211 H   0  0  0  0  0  0  0  0  0  0  0  0
   43.6987    3.3276   13.8023 H   0  0  0  0  0  0  0  0  0  0  0  0
   42.2914    6.8192   11.7437 H   0  0  0  0  0  0  0  0  0  0  0  0
   42.3319    5.3962   13.7771 H   0  0  0  0  0  0  0  0  0  0  0  0
  2  1  1  0
  3  1  1  0
  1  4  1  0
  3  5  1  0
  6  4  2  0
  7  4  1  0
  8  7  2  0
  9  6  1  0
 10  9  2  0
  3  2  1  0
  8 10  1  0
 12 11  2  0
 13 11  2  0
 14 11  1  0
 15 11  1  0
 17 16  1  0
 18 16  1  0
 16 19  1  0
 18 20  1  0
 21 19  2  0
 22 19  1  0
 23 22  2  0
 24 21  1  0
 25 24  2  0
 18 17  1  0
 23 25  1  0
  1 26  1  6
  2 27  1  0
  2 28  1  0
  3 29  1  1
  5 30  1  0
  5 31  1  0
  6 32  1  0
  7 33  1  0
  8 34  1  0
  9 35  1  0
 10 36  1  0
 14 37  1  0
 15 38  1  0
 16 39  1  6
 17 40  1  0
 17 41  1  0
 18 42  1  1
 20 43  1  0
 20 44  1  0
 21 45  1  0
 22 46  1  0
 23 47  1  0
 24 48  1  0
 25 49  1  0
M  END
> <Uni-Dock RESULT> 
ENERGY=   -7.784  LOWER_BOUND=    1.514  UPPER_BOUND=    4.539
INTER + INTRA:          -7.784
INTER:                  -7.784
INTRA:                   0.000
UNBOUND:                 0.000

$$$$

     RDKit          3D

 49 50  0  0  0  0  0  0  0  0999 V2000
   45.5459    3.5813    9.6147 C   0  0  1  0  0  0  0  0  0  0  0  0
   45.3954    2.1754    9.0766 C   0  0  0  0  0  0  0  0  0  0  0  0
   45.0457    3.3416    8.2042 C   0  0  2  0  0  0  0  0  0  0  0  0
   44.5946    4.1011   10.6674 C   0  0  0  0  0  0  0  0  0  0  0  0
   45.8994    3.6583    7.0599 N   0  0  0  0  0  0  0  0  0  0  0  0
   43.9397    5.3342   10.5099 C   0  0  0  0  0  0  0  0  0  0  0  0
   44.3524    3.3895   11.8544 C   0  0  0  0  0  0  0  0  0  0  0  0
   43.4826    3.8776   12.8335 C   0  0  0  0  0  0  0  0  0  0  0  0
   43.0692    5.8301   11.4846 C   0  0  0  0  0  0  0  0  0  0  0  0
   42.8397    5.0987   12.6469 C   0  0  0  0  0  0  0  0  0  0  0  0
   44.5036    3.5785   10.4510 S   0  0  0  0  0  0  0  0  0  0  0  0
   43.7438    2.4752    9.9199 O   0  0  0  0  0  0  0  0  0  0  0  0
   45.1805    3.5484   11.7225 O   0  0  0  0  0  0  0  0  0  0  0  0
   43.5649    4.8796   10.4647 O   0  0  0  0  0  0  0  0  0  0  0  0
   45.5692    3.9792    9.3212 O   0  0  0  0  0  0  0  0  0  0  0  0
   44.4856    3.9757   11.3832 C   0  0  2  0  0  0  0  0  0  0  0  0
   43.0676    3.6728   11.8111 C   0  0  0  0  0  0  0  0  0  0  0  0
   43.5060    5.0967   11.6574 C   0  0  1  0  0  0  0  0  0  0  0  0
   44.9301    3.6752    9.9712 C   0  0  0  0  0  0  0  0  0  0  0  0
   43.6833    5.9332   12.8443 N   0  0  0  0  0  0  0  0  0  0  0  0
   44.9008    2.3662    9.4639 C   0  0  0  0  0  0  0  0  0  0  0  0
   45.4298    4.6820    9.1288 C   0  0  0  0  0  0  0  0  0  0  0  0
   45.8739    4.3969    7.8348 C   0  0  0  0  0  0  0  0  0  0  0  0
   45.3477    2.0735    8.1729 C   0  0  0  0  0  0  0  0  0  0  0  0
   45.8366    3.0914    7.3584 C   0  0  0  0  0  0  0  0  0  0  0  0
   46.5675    3.9411    9.7152 H   0  0  0  0  0  0  0  0  0  0  0  0
   44.5772    1.5588    9.4315 H   0  0  0  0  0  0  0  0  0  0  0  0
   46.2972    1.6134    8.8598 H   0  0  0  0  0  0  0  0  0  0  0  0
   43.9811    3.4921    8.0151 H   0  0  0  0  0  0  0  0  0  0  0  0
   46.8902    3.5511    7.2866 H   0  0  0  0  0  0  0  0  0  0  0  0
   45.7771    4.6344    6.7818 H   0  0  0  0  0  0  0  0  0  0  0  0
   44.1106    5.9201    9.6098 H   0  0  0  0  0  0  0  0  0  0  0  0
   44.8488    2.4356   12.0182 H   0  0  0  0  0  0  0  0  0  0  0  0
   43.3093    3.3030   13.7400 H   0  0  0  0  0  0  0  0  0  0  0  0
   42.5725    6.7884   11.3342 H   0  0  0  0  0  0  0  0  0  0  0  0
   42.1626    5.4808   13.4060 H   0  0  0  0  0  0  0  0  0  0  0  0
   43.9940    5.5418   11.0441 H   0  0  0  0  0  0  0  0  0  0  0  0
   45.1969    3.6992    8.4601 H   0  0  0  0  0  0  0  0  0  0  0  0
   45.2571    3.8222   12.1356 H   0  0  0  0  0  0  0  0  0  0  0  0
   42.9196    3.2667   12.8048 H   0  0  0  0  0  0  0  0  0  0  0  0
   42.3671    3.2960   11.0761 H   0  0  0  0  0  0  0  0  0  0  0  0
   43.1028    5.6282   10.7956 H   0  0  0  0  0  0  0  0  0  0  0  0
   42.8008    6.3663   13.1132 H   0  0  0  0  0  0  0  0  0  0  0  0
   43.9810    5.3874   13.6493 H   0  0  0  0  0  0  0  0  0  0  0  0
   44.5279    1.5567   10.0901 H   0  0  0  0  0  0  0  0  0  0  0  0
   45.4772    5.7065    9.4911 H   0  0  0  0  0  0  0  0  0  0  0  0
   46.2559    5.1950    7.2048 H   0  0  0  0  0  0  0  0  0  0  0  0
   45.3189    1.0516    7.8083 H   0  0  0  0  0  0  0  0  0  0  0  0
   46.1889    2.8664    6.3555 H   0  0  0  0  0  0  0  0  0  0  0  0
  2  1  1  0
  3  1  1  0
  1  4  1  0
  3  5  1  0
  6  4  2  0
  7  4  1  0
  8  7  2  0
  9  6  1  0
 10  9  2  0
  3  2  1  0
  8 10  1  0
 12 11  2  0
 13 11  2  0
 14 11  1  0
 15 11  1  0
 17 16  1  0
 18 16  1  0
 16 19  1  0
 18 20  1  0
 21 19  2  0
 22 19  1  0
 23 22  2  0
 24 21  1  0
 25 24  2  0
 18 17  1  0
 23 25  1  0
  1 26  1  6
  2 27  1  0
  2 28  1  0
  3 29  1  1
  5 30  1  0
  5 31  1  0
  6 32  1  0
  7 33  1  0
  8 34  1  0
  9 35  1  0
 10 36  1  0
 14 37  1  0
 15 38  1  0
 16 39  1  6
 17 40  1  0
 17 41  1  0
 18 42  1  1
 20 43  1  0
 20 44  1  0
 21 45  1  0
 22 46  1  0
 23 47  1  0
 24 48  1  0
 25 49  1  0
M  END
> <Uni-Dock RESULT> 
ENERGY=   -7.144  LOWER_BOUND=    1.568  UPPER_BOUND=    2.859
INTER + INTRA:          -7.144
INTER:                  -7.144
INTRA:                   0.000
UNBOUND:                 0.000

$$$$

     RDKit          3D

 49 50  0  0  0  0  0  0  0  0999 V2000
   44.8313    5.7959   11.7691 C   0  0  1  0  0  0  0  0  0  0  0  0
   44.6923    4.4703   12.4849 C   0  0  0  0  0  0  0  0  0  0  0  0
   43.5968    5.4860   12.5919 C   0  0  2  0  0  0  0  0  0  0  0  0
   45.8184    6.8288   12.2612 C   0  0  0  0  0  0  0  0  0  0  0  0
   42.3189    5.2301   11.9285 N   0  0  0  0  0  0  0  0  0  0  0  0
   45.4270    8.1597   12.4840 C   0  0  0  0  0  0  0  0  0  0  0  0
   47.1678    6.5075   12.4847 C   0  0  0  0  0  0  0  0  0  0  0  0
   48.0828    7.4668   12.9271 C   0  0  0  0  0  0  0  0  0  0  0  0
   46.3360    9.1255   12.9254 C   0  0  0  0  0  0  0  0  0  0  0  0
   47.6653    8.7767   13.1486 C   0  0  0  0  0  0  0  0  0  0  0  0
   45.7550    6.3459   12.5629 S   0  0  0  0  0  0  0  0  0  0  0  0
   45.6156    5.5227   13.7374 O   0  0  0  0  0  0  0  0  0  0  0  0
   46.9049    6.3178   11.6951 O   0  0  0  0  0  0  0  0  0  0  0  0
   45.5433    7.8778   12.9902 O   0  0  0  0  0  0  0  0  0  0  0  0
   44.4451    6.0903   11.6734 O   0  0  0  0  0  0  0  0  0  0  0  0
   46.5500    6.8967   12.2604 C   0  0  2  0  0  0  0  0  0  0  0  0
   47.2020    7.2336   13.5821 C   0  0  0  0  0  0  0  0  0  0  0  0
   46.6393    8.3319   12.7334 C   0  0  1  0  0  0  0  0  0  0  0  0
   45.2205    6.1803   12.2336 C   0  0  0  0  0  0  0  0  0  0  0  0
   47.5437    9.2591   12.0534 N   0  0  0  0  0  0  0  0  0  0  0  0
   45.0722    4.9037   12.7993 C   0  0  0  0  0  0  0  0  0  0  0  0
   44.0966    6.7416   11.6055 C   0  0  0  0  0  0  0  0  0  0  0  0
   42.8764    6.0626   11.5504 C   0  0  0  0  0  0  0  0  0  0  0  0
   43.8566    4.2173   12.7436 C   0  0  0  0  0  0  0  0  0  0  0  0
   42.7578    4.7982   12.1160 C   0  0  0  0  0  0  0  0  0  0  0  0
   44.7177    5.7622   10.6877 H   0  0  0  0  0  0  0  0  0  0  0  0
   45.2853    4.2852   13.3735 H   0  0  0  0  0  0  0  0  0  0  0  0
   44.5240    3.5825   11.8853 H   0  0  0  0  0  0  0  0  0  0  0  0
   43.4997    5.9810   13.5600 H   0  0  0  0  0  0  0  0  0  0  0  0
   42.4495    4.8093   11.0064 H   0  0  0  0  0  0  0  0  0  0  0  0
   41.8161    6.1062   11.7708 H   0  0  0  0  0  0  0  0  0  0  0  0
   44.3934    8.4501   12.3110 H   0  0  0  0  0  0  0  0  0  0  0  0
   47.5119    5.4900   12.3133 H   0  0  0  0  0  0  0  0  0  0  0  0
   49.1200    7.1889   13.0973 H   0  0  0  0  0  0  0  0  0  0  0  0
   46.0036   10.1498   13.0929 H   0  0  0  0  0  0  0  0  0  0  0  0
   48.3742    9.5248   13.4930 H   0  0  0  0  0  0  0  0  0  0  0  0
   45.8803    8.4332   12.2579 H   0  0  0  0  0  0  0  0  0  0  0  0
   43.7333    5.8048   12.2820 H   0  0  0  0  0  0  0  0  0  0  0  0
   47.2224    6.6192   11.4506 H   0  0  0  0  0  0  0  0  0  0  0  0
   48.2767    7.1163   13.6555 H   0  0  0  0  0  0  0  0  0  0  0  0
   46.6740    7.0071   14.5002 H   0  0  0  0  0  0  0  0  0  0  0  0
   45.7226    8.7939   13.0996 H   0  0  0  0  0  0  0  0  0  0  0  0
   47.7927   10.0330   12.6679 H   0  0  0  0  0  0  0  0  0  0  0  0
   48.4216    8.8121   11.8005 H   0  0  0  0  0  0  0  0  0  0  0  0
   45.9236    4.4316   13.2879 H   0  0  0  0  0  0  0  0  0  0  0  0
   44.1764    7.7248   11.1472 H   0  0  0  0  0  0  0  0  0  0  0  0
   42.0233    6.5202   11.0579 H   0  0  0  0  0  0  0  0  0  0  0  0
   43.7717    3.2291   13.1843 H   0  0  0  0  0  0  0  0  0  0  0  0
   41.8122    4.2652   12.0672 H   0  0  0  0  0  0  0  0  0  0  0  0
  2  1  1  0
  3  1  1  0
  1  4  1  0
  3  5  1  0
  6  4  2  0
  7  4  1  0
  8  7  2  0
  9  6  1  0
 10  9  2  0
  3  2  1  0
  8 10  1  0
 12 11  2  0
 13 11  2  0
 14 11  1  0
 15 11  1  0
 17 16  1  0
 18 16  1  0
 16 19  1  0
 18 20  1  0
 21 19  2  0
 22 19  1  0
 23 22  2  0
 24 21  1  0
 25 24  2  0
 18 17  1  0
 23 25  1  0
  1 26  1  6
  2 27  1  0
  2 28  1  0
  3 29  1  1
  5 30  1  0
  5 31  1  0
  6 32  1  0
  7 33  1  0
  8 34  1  0
  9 35  1  0
 10 36  1  0
 14 37  1  0
 15 38  1  0
 16 39  1  6
 17 40  1  0
 17 41  1  0
 18 42  1  1
 20 43  1  0
 20 44  1  0
 21 45  1  0
 22 46  1  0
 23 47  1  0
 24 48  1  0
 25 49  1  0
M  END
> <Uni-Dock RESULT> 
ENERGY=   -6.272  LOWER_BOUND=    4.739  UPPER_BOUND=    6.189
INTER + INTRA:          -6.272
INTER:                  -6.272
INTRA:                   0.000
UNBOUND:                 0.000

$$$$
