
     RDKit          3D

 49 50  0  0  0  0  0  0  0  0999 V2000
   44.4247    3.4728    9.1318 C   0  0  1  0  0  0  0  0  0  0  0  0
   45.7095    3.7403    8.3807 C   0  0  0  0  0  0  0  0  0  0  0  0
   45.5001    2.4103    9.0353 C   0  0  2  0  0  0  0  0  0  0  0  0
   44.1590    4.1526   10.4544 C   0  0  0  0  0  0  0  0  0  0  0  0
   45.2778    1.2234    8.2096 N   0  0  0  0  0  0  0  0  0  0  0  0
   43.7873    3.4106   11.5885 C   0  0  0  0  0  0  0  0  0  0  0  0
   44.2390    5.5481   10.5935 C   0  0  0  0  0  0  0  0  0  0  0  0
   43.9783    6.1749   11.8151 C   0  0  0  0  0  0  0  0  0  0  0  0
   43.5242    4.0313   12.8124 C   0  0  0  0  0  0  0  0  0  0  0  0
   43.6223    5.4149   12.9255 C   0  0  0  0  0  0  0  0  0  0  0  0
   44.4723    4.2605   10.0284 S   0  0  0  0  0  0  0  0  0  0  0  0
   45.4575    4.6941    9.0708 O   0  0  0  0  0  0  0  0  0  0  0  0
   43.2999    5.0224   10.3754 O   0  0  0  0  0  0  0  0  0  0  0  0
   44.0069    2.7944    9.5720 O   0  0  0  0  0  0  0  0  0  0  0  0
   45.2217    3.9307   11.4077 O   0  0  0  0  0  0  0  0  0  0  0  0
   45.1364    3.9721    9.2139 C   0  0  2  0  0  0  0  0  0  0  0  0
   44.3297    3.3047    8.1230 C   0  0  0  0  0  0  0  0  0  0  0  0
   45.3823    2.5238    8.8457 C   0  0  1  0  0  0  0  0  0  0  0  0
   44.4881    4.3146   10.5347 C   0  0  0  0  0  0  0  0  0  0  0  0
   46.6123    2.1494    8.1481 N   0  0  0  0  0  0  0  0  0  0  0  0
   45.0401    3.8777   11.7507 C   0  0  0  0  0  0  0  0  0  0  0  0
   43.3312    5.1093   10.5992 C   0  0  0  0  0  0  0  0  0  0  0  0
   42.7400    5.4383   11.8221 C   0  0  0  0  0  0  0  0  0  0  0  0
   44.4540    4.2034   12.9766 C   0  0  0  0  0  0  0  0  0  0  0  0
   43.3016    4.9832   13.0113 C   0  0  0  0  0  0  0  0  0  0  0  0
   43.5385    3.3214    8.5187 H   0  0  0  0  0  0  0  0  0  0  0  0
   46.4471    4.4011    8.8225 H   0  0  0  0  0  0  0  0  0  0  0  0
   45.6521    3.8116    7.3010 H   0  0  0  0  0  0  0  0  0  0  0  0
   46.0838    2.2174    9.9339 H   0  0  0  0  0  0  0  0  0  0  0  0
   44.7686    1.4508    7.3568 H   0  0  0  0  0  0  0  0  0  0  0  0
   46.1672    0.8273    7.9076 H   0  0  0  0  0  0  0  0  0  0  0  0
   43.7002    2.3280   11.5132 H   0  0  0  0  0  0  0  0  0  0  0  0
   44.5086    6.1579    9.7341 H   0  0  0  0  0  0  0  0  0  0  0  0
   44.0510    7.2563   11.8959 H   0  0  0  0  0  0  0  0  0  0  0  0
   43.2397    3.4322   13.6732 H   0  0  0  0  0  0  0  0  0  0  0  0
   43.4174    5.9000   13.8759 H   0  0  0  0  0  0  0  0  0  0  0  0
   44.7704    2.3734    9.1263 H   0  0  0  0  0  0  0  0  0  0  0  0
   44.5435    3.9450   12.1147 H   0  0  0  0  0  0  0  0  0  0  0  0
   45.8845    4.6889    8.8815 H   0  0  0  0  0  0  0  0  0  0  0  0
   43.2946    3.0482    8.3209 H   0  0  0  0  0  0  0  0  0  0  0  0
   44.5117    3.6185    7.1024 H   0  0  0  0  0  0  0  0  0  0  0  0
   45.0267    1.7688    9.5451 H   0  0  0  0  0  0  0  0  0  0  0  0
   46.8995    2.8671    7.4840 H   0  0  0  0  0  0  0  0  0  0  0  0
   46.4674    1.3022    7.5991 H   0  0  0  0  0  0  0  0  0  0  0  0
   45.9451    3.2725   11.7399 H   0  0  0  0  0  0  0  0  0  0  0  0
   42.8835    5.4793    9.6794 H   0  0  0  0  0  0  0  0  0  0  0  0
   41.8433    6.0519   11.8432 H   0  0  0  0  0  0  0  0  0  0  0  0
   44.9007    3.8487   13.9015 H   0  0  0  0  0  0  0  0  0  0  0  0
   42.8445    5.2386   13.9633 H   0  0  0  0  0  0  0  0  0  0  0  0
  2  1  1  0
  3  1  1  0
  1  4  1  0
  3  5  1  0
  6  4  2  0
  7  4  1  0
  8  7  2  0
  9  6  1  0
 10  9  2  0
  3  2  1  0
  8 10  1  0
 12 11  2  0
 13 11  2  0
 14 11  1  0
 15 11  1  0
 17 16  1  0
 18 16  1  0
 16 19  1  0
 18 20  1  0
 21 19  2  0
 22 19  1  0
 23 22  2  0
 24 21  1  0
 25 24  2  0
 18 17  1  0
 23 25  1  0
  1 26  1  1
  2 27  1  0
  2 28  1  0
  3 29  1  6
  5 30  1  0
  5 31  1  0
  6 32  1  0
  7 33  1  0
  8 34  1  0
  9 35  1  0
 10 36  1  0
 14 37  1  0
 15 38  1  0
 16 39  1  1
 17 40  1  0
 17 41  1  0
 18 42  1  6
 20 43  1  0
 20 44  1  0
 21 45  1  0
 22 46  1  0
 23 47  1  0
 24 48  1  0
 25 49  1  0
M  END
> <Uni-Dock RESULT> 
ENERGY=   -7.397  LOWER_BOUND=    0.000  UPPER_BOUND=    0.000
INTER + INTRA:          -7.397
INTER:                  -7.397
INTRA:                   0.000
UNBOUND:                 0.000

$$$$

     RDKit          3D

 49 50  0  0  0  0  0  0  0  0999 V2000
   44.6877    3.1805    9.3665 C   0  0  1  0  0  0  0  0  0  0  0  0
   44.5712    3.6956    7.9496 C   0  0  0  0  0  0  0  0  0  0  0  0
   45.9198    3.3537    8.5024 C   0  0  2  0  0  0  0  0  0  0  0  0
   44.4562    4.1077   10.5364 C   0  0  0  0  0  0  0  0  0  0  0  0
   46.6297    2.1758    8.0036 N   0  0  0  0  0  0  0  0  0  0  0  0
   45.3969    4.2121   11.5752 C   0  0  0  0  0  0  0  0  0  0  0  0
   43.2830    4.8720   10.6484 C   0  0  0  0  0  0  0  0  0  0  0  0
   43.0656    5.7178   11.7395 C   0  0  0  0  0  0  0  0  0  0  0  0
   45.1851    5.0549   12.6693 C   0  0  0  0  0  0  0  0  0  0  0  0
   44.0188    5.8101   12.7496 C   0  0  0  0  0  0  0  0  0  0  0  0
   44.3066    4.1063   10.0178 S   0  0  0  0  0  0  0  0  0  0  0  0
   43.8826    4.3742    8.6672 O   0  0  0  0  0  0  0  0  0  0  0  0
   43.3998    3.8848   11.1152 O   0  0  0  0  0  0  0  0  0  0  0  0
   45.3203    2.8651    9.9400 O   0  0  0  0  0  0  0  0  0  0  0  0
   45.2947    5.2830   10.4782 O   0  0  0  0  0  0  0  0  0  0  0  0
   44.4808    3.9239    8.9577 C   0  0  2  0  0  0  0  0  0  0  0  0
   44.4639    2.4346    8.6968 C   0  0  0  0  0  0  0  0  0  0  0  0
   45.7188    3.2128    8.4525 C   0  0  1  0  0  0  0  0  0  0  0  0
   44.4365    4.4460   10.3745 C   0  0  0  0  0  0  0  0  0  0  0  0
   46.1769    3.4354    7.0813 N   0  0  0  0  0  0  0  0  0  0  0  0
   45.4058    5.3460   10.8486 C   0  0  0  0  0  0  0  0  0  0  0  0
   43.4082    4.0794   11.2590 C   0  0  0  0  0  0  0  0  0  0  0  0
   43.3593    4.5741   12.5652 C   0  0  0  0  0  0  0  0  0  0  0  0
   45.3623    5.8444   12.1532 C   0  0  0  0  0  0  0  0  0  0  0  0
   44.3385    5.4561   13.0124 C   0  0  0  0  0  0  0  0  0  0  0  0
   44.3510    2.1588    9.5299 H   0  0  0  0  0  0  0  0  0  0  0  0
   44.3511    4.7454    7.7900 H   0  0  0  0  0  0  0  0  0  0  0  0
   44.1206    3.0395    7.2144 H   0  0  0  0  0  0  0  0  0  0  0  0
   46.5721    4.1931    8.7373 H   0  0  0  0  0  0  0  0  0  0  0  0
   45.9844    1.4286    7.7518 H   0  0  0  0  0  0  0  0  0  0  0  0
   47.1422    2.4023    7.1520 H   0  0  0  0  0  0  0  0  0  0  0  0
   46.3109    3.6223   11.5291 H   0  0  0  0  0  0  0  0  0  0  0  0
   42.5243    4.8064    9.8719 H   0  0  0  0  0  0  0  0  0  0  0  0
   42.1504    6.3009   11.7996 H   0  0  0  0  0  0  0  0  0  0  0  0
   45.9303    5.1164   13.4578 H   0  0  0  0  0  0  0  0  0  0  0  0
   43.8513    6.4656   13.5998 H   0  0  0  0  0  0  0  0  0  0  0  0
   45.7684    2.9107    9.0706 H   0  0  0  0  0  0  0  0  0  0  0  0
   45.3239    5.2681   11.4575 H   0  0  0  0  0  0  0  0  0  0  0  0
   43.9485    4.5394    8.2353 H   0  0  0  0  0  0  0  0  0  0  0  0
   44.4549    1.7558    9.5427 H   0  0  0  0  0  0  0  0  0  0  0  0
   43.8881    2.0810    7.8504 H   0  0  0  0  0  0  0  0  0  0  0  0
   46.5269    3.0600    9.1662 H   0  0  0  0  0  0  0  0  0  0  0  0
   45.3941    3.5475    6.4384 H   0  0  0  0  0  0  0  0  0  0  0  0
   46.7016    2.6280    6.7449 H   0  0  0  0  0  0  0  0  0  0  0  0
   46.2090    5.6640   10.1860 H   0  0  0  0  0  0  0  0  0  0  0  0
   42.6309    3.3965   10.9233 H   0  0  0  0  0  0  0  0  0  0  0  0
   42.5546    4.2716   13.2299 H   0  0  0  0  0  0  0  0  0  0  0  0
   46.1275    6.5366   12.4940 H   0  0  0  0  0  0  0  0  0  0  0  0
   44.3020    5.8430   14.0270 H   0  0  0  0  0  0  0  0  0  0  0  0
  2  1  1  0
  3  1  1  0
  1  4  1  0
  3  5  1  0
  6  4  2  0
  7  4  1  0
  8  7  2  0
  9  6  1  0
 10  9  2  0
  3  2  1  0
  8 10  1  0
 12 11  2  0
 13 11  2  0
 14 11  1  0
 15 11  1  0
 17 16  1  0
 18 16  1  0
 16 19  1  0
 18 20  1  0
 21 19  2  0
 22 19  1  0
 23 22  2  0
 24 21  1  0
 25 24  2  0
 18 17  1  0
 23 25  1  0
  1 26  1  1
  2 27  1  0
  2 28  1  0
  3 29  1  6
  5 30  1  0
  5 31  1  0
  6 32  1  0
  7 33  1  0
  8 34  1  0
  9 35  1  0
 10 36  1  0
 14 37  1  0
 15 38  1  0
 16 39  1  1
 17 40  1  0
 17 41  1  0
 18 42  1  6
 20 43  1  0
 20 44  1  0
 21 45  1  0
 22 46  1  0
 23 47  1  0
 24 48  1  0
 25 49  1  0
M  END
> <Uni-Dock RESULT> 
ENERGY=   -6.839  LOWER_BOUND=    0.926  UPPER_BOUND=    1.298
INTER + INTRA:          -6.839
INTER:                  -6.839
INTRA:                   0.000
UNBOUND:                 0.000

$$$$

     RDKit          3D

 49 50  0  0  0  0  0  0  0  0999 V2000
   45.2909    3.3105    9.6106 C   0  0  1  0  0  0  0  0  0  0  0  0
   44.5516    2.3470    8.7098 C   0  0  0  0  0  0  0  0  0  0  0  0
   44.9099    3.7080    8.1994 C   0  0  2  0  0  0  0  0  0  0  0  0
   44.5873    3.9489   10.7851 C   0  0  0  0  0  0  0  0  0  0  0  0
   45.9478    3.8486    7.1782 N   0  0  0  0  0  0  0  0  0  0  0  0
   44.6097    5.3414   10.9733 C   0  0  0  0  0  0  0  0  0  0  0  0
   43.9159    3.1779   11.7483 C   0  0  0  0  0  0  0  0  0  0  0  0
   43.2784    3.7708   12.8415 C   0  0  0  0  0  0  0  0  0  0  0  0
   43.9753    5.9404   12.0647 C   0  0  0  0  0  0  0  0  0  0  0  0
   43.3072    5.1535   12.9982 C   0  0  0  0  0  0  0  0  0  0  0  0
   44.5094    3.5016   10.4934 S   0  0  0  0  0  0  0  0  0  0  0  0
   44.0408    2.3289    9.7999 O   0  0  0  0  0  0  0  0  0  0  0  0
   44.9599    3.4989   11.8618 O   0  0  0  0  0  0  0  0  0  0  0  0
   45.6644    4.1401    9.5811 O   0  0  0  0  0  0  0  0  0  0  0  0
   43.3764    4.6325   10.3927 O   0  0  0  0  0  0  0  0  0  0  0  0
   44.5013    2.9411    9.5589 C   0  0  2  0  0  0  0  0  0  0  0  0
   45.9242    2.6583    9.1328 C   0  0  0  0  0  0  0  0  0  0  0  0
   45.0508    3.5129    8.2686 C   0  0  1  0  0  0  0  0  0  0  0  0
   44.2281    3.8532   10.7317 C   0  0  0  0  0  0  0  0  0  0  0  0
   44.5768    2.9972    6.9844 N   0  0  0  0  0  0  0  0  0  0  0  0
   43.3708    4.9595   10.6083 C   0  0  0  0  0  0  0  0  0  0  0  0
   44.7922    3.6110   11.9956 C   0  0  0  0  0  0  0  0  0  0  0  0
   44.5276    4.4466   13.0842 C   0  0  0  0  0  0  0  0  0  0  0  0
   43.1020    5.7985   11.6929 C   0  0  0  0  0  0  0  0  0  0  0  0
   43.6829    5.5420   12.9314 C   0  0  0  0  0  0  0  0  0  0  0  0
   46.3419    3.0881    9.7836 H   0  0  0  0  0  0  0  0  0  0  0  0
   43.5030    2.1487    8.9026 H   0  0  0  0  0  0  0  0  0  0  0  0
   45.0975    1.4857    8.3435 H   0  0  0  0  0  0  0  0  0  0  0  0
   44.0887    4.4147    8.0915 H   0  0  0  0  0  0  0  0  0  0  0  0
   46.6751    3.1428    7.2839 H   0  0  0  0  0  0  0  0  0  0  0  0
   45.5546    3.7084    6.2482 H   0  0  0  0  0  0  0  0  0  0  0  0
   45.1341    5.9689   10.2546 H   0  0  0  0  0  0  0  0  0  0  0  0
   43.8899    2.0953   11.6453 H   0  0  0  0  0  0  0  0  0  0  0  0
   42.7630    3.1508   13.5703 H   0  0  0  0  0  0  0  0  0  0  0  0
   44.0081    7.0199   12.1846 H   0  0  0  0  0  0  0  0  0  0  0  0
   42.8138    5.6169   13.8483 H   0  0  0  0  0  0  0  0  0  0  0  0
   45.4496    3.9269    8.6499 H   0  0  0  0  0  0  0  0  0  0  0  0
   43.5543    5.2827   11.1037 H   0  0  0  0  0  0  0  0  0  0  0  0
   43.8021    2.1132    9.4614 H   0  0  0  0  0  0  0  0  0  0  0  0
   46.7352    3.1479    9.6609 H   0  0  0  0  0  0  0  0  0  0  0  0
   46.1603    1.6507    8.8131 H   0  0  0  0  0  0  0  0  0  0  0  0
   45.2786    4.5776    8.2574 H   0  0  0  0  0  0  0  0  0  0  0  0
   44.3996    1.9944    7.0259 H   0  0  0  0  0  0  0  0  0  0  0  0
   45.2872    3.1261    6.2640 H   0  0  0  0  0  0  0  0  0  0  0  0
   42.9038    5.1690    9.6474 H   0  0  0  0  0  0  0  0  0  0  0  0
   45.4489    2.7550   12.1340 H   0  0  0  0  0  0  0  0  0  0  0  0
   44.9798    4.2383   14.0501 H   0  0  0  0  0  0  0  0  0  0  0  0
   42.4376    6.6492   11.5676 H   0  0  0  0  0  0  0  0  0  0  0  0
   43.4748    6.1924   13.7765 H   0  0  0  0  0  0  0  0  0  0  0  0
  2  1  1  0
  3  1  1  0
  1  4  1  0
  3  5  1  0
  6  4  2  0
  7  4  1  0
  8  7  2  0
  9  6  1  0
 10  9  2  0
  3  2  1  0
  8 10  1  0
 12 11  2  0
 13 11  2  0
 14 11  1  0
 15 11  1  0
 17 16  1  0
 18 16  1  0
 16 19  1  0
 18 20  1  0
 21 19  2  0
 22 19  1  0
 23 22  2  0
 24 21  1  0
 25 24  2  0
 18 17  1  0
 23 25  1  0
  1 26  1  1
  2 27  1  0
  2 28  1  0
  3 29  1  6
  5 30  1  0
  5 31  1  0
  6 32  1  0
  7 33  1  0
  8 34  1  0
  9 35  1  0
 10 36  1  0
 14 37  1  0
 15 38  1  0
 16 39  1  1
 17 40  1  0
 17 41  1  0
 18 42  1  6
 20 43  1  0
 20 44  1  0
 21 45  1  0
 22 46  1  0
 23 47  1  0
 24 48  1  0
 25 49  1  0
M  END
> <Uni-Dock RESULT> 
ENERGY=   -6.055  LOWER_BOUND=    0.811  UPPER_BOUND=    2.027
INTER + INTRA:          -6.055
INTER:                  -6.055
INTRA:                   0.000
UNBOUND:                 0.000

$$$$

     RDKit          3D

 49 50  0  0  0  0  0  0  0  0999 V2000
   46.5869    6.6913   12.2394 C   0  0  1  0  0  0  0  0  0  0  0  0
   46.6173    7.8838   13.1687 C   0  0  0  0  0  0  0  0  0  0  0  0
   47.3409    6.6304   13.5518 C   0  0  2  0  0  0  0  0  0  0  0  0
   45.3171    5.8915   12.0666 C   0  0  0  0  0  0  0  0  0  0  0  0
   48.8036    6.6091   13.5498 N   0  0  0  0  0  0  0  0  0  0  0  0
   45.3152    4.4940   12.2157 C   0  0  0  0  0  0  0  0  0  0  0  0
   44.1026    6.5054   11.7185 C   0  0  0  0  0  0  0  0  0  0  0  0
   42.9328    5.7606   11.5451 C   0  0  0  0  0  0  0  0  0  0  0  0
   44.1494    3.7435   12.0426 C   0  0  0  0  0  0  0  0  0  0  0  0
   42.9568    4.3786   11.7092 C   0  0  0  0  0  0  0  0  0  0  0  0
   45.4300    6.3946   12.2258 S   0  0  0  0  0  0  0  0  0  0  0  0
   45.4891    7.7232   12.7800 O   0  0  0  0  0  0  0  0  0  0  0  0
   44.7877    6.0734   10.9769 O   0  0  0  0  0  0  0  0  0  0  0  0
   46.9400    5.8550   12.1723 O   0  0  0  0  0  0  0  0  0  0  0  0
   44.7923    5.4177   13.3266 O   0  0  0  0  0  0  0  0  0  0  0  0
   46.0344    7.1343   12.7504 C   0  0  2  0  0  0  0  0  0  0  0  0
   47.3167    7.3672   11.9838 C   0  0  0  0  0  0  0  0  0  0  0  0
   47.3760    6.7933   13.3648 C   0  0  1  0  0  0  0  0  0  0  0  0
   45.0926    6.0287   12.3346 C   0  0  0  0  0  0  0  0  0  0  0  0
   47.8999    7.6042   14.4637 N   0  0  0  0  0  0  0  0  0  0  0  0
   44.6638    5.0552   13.2524 C   0  0  0  0  0  0  0  0  0  0  0  0
   44.5843    5.9519   11.0270 C   0  0  0  0  0  0  0  0  0  0  0  0
   43.7015    4.9375   10.6464 C   0  0  0  0  0  0  0  0  0  0  0  0
   43.7812    4.0386   12.8783 C   0  0  0  0  0  0  0  0  0  0  0  0
   43.3013    3.9794   11.5732 C   0  0  0  0  0  0  0  0  0  0  0  0
   47.1905    6.7758   11.3380 H   0  0  0  0  0  0  0  0  0  0  0  0
   45.7240    8.1334   13.7305 H   0  0  0  0  0  0  0  0  0  0  0  0
   47.1898    8.7483   12.8544 H   0  0  0  0  0  0  0  0  0  0  0  0
   46.8939    6.0397   14.3497 H   0  0  0  0  0  0  0  0  0  0  0  0
   49.1857    7.2080   12.8195 H   0  0  0  0  0  0  0  0  0  0  0  0
   49.1669    6.9737   14.4298 H   0  0  0  0  0  0  0  0  0  0  0  0
   46.2423    3.9830   12.4700 H   0  0  0  0  0  0  0  0  0  0  0  0
   44.0675    7.5835   11.5790 H   0  0  0  0  0  0  0  0  0  0  0  0
   42.0056    6.2613   11.2793 H   0  0  0  0  0  0  0  0  0  0  0  0
   44.1771    2.6641   12.1652 H   0  0  0  0  0  0  0  0  0  0  0  0
   42.0490    3.7970   11.5733 H   0  0  0  0  0  0  0  0  0  0  0  0
   47.4243    6.2746   12.9126 H   0  0  0  0  0  0  0  0  0  0  0  0
   44.4723    4.6212   12.8542 H   0  0  0  0  0  0  0  0  0  0  0  0
   45.5402    8.0251   13.1327 H   0  0  0  0  0  0  0  0  0  0  0  0
   47.5598    6.7068   11.1585 H   0  0  0  0  0  0  0  0  0  0  0  0
   47.6254    8.3931   11.8242 H   0  0  0  0  0  0  0  0  0  0  0  0
   47.6325    5.7375   13.4369 H   0  0  0  0  0  0  0  0  0  0  0  0
   47.6631    8.5888   14.3485 H   0  0  0  0  0  0  0  0  0  0  0  0
   48.9188    7.5622   14.4838 H   0  0  0  0  0  0  0  0  0  0  0  0
   45.0254    5.0923   14.2787 H   0  0  0  0  0  0  0  0  0  0  0  0
   44.8813    6.6969   10.2921 H   0  0  0  0  0  0  0  0  0  0  0  0
   43.3260    4.8994    9.6274 H   0  0  0  0  0  0  0  0  0  0  0  0
   43.4691    3.2968   13.6085 H   0  0  0  0  0  0  0  0  0  0  0  0
   42.6142    3.1905   11.2800 H   0  0  0  0  0  0  0  0  0  0  0  0
  2  1  1  0
  3  1  1  0
  1  4  1  0
  3  5  1  0
  6  4  2  0
  7  4  1  0
  8  7  2  0
  9  6  1  0
 10  9  2  0
  3  2  1  0
  8 10  1  0
 12 11  2  0
 13 11  2  0
 14 11  1  0
 15 11  1  0
 17 16  1  0
 18 16  1  0
 16 19  1  0
 18 20  1  0
 21 19  2  0
 22 19  1  0
 23 22  2  0
 24 21  1  0
 25 24  2  0
 18 17  1  0
 23 25  1  0
  1 26  1  1
  2 27  1  0
  2 28  1  0
  3 29  1  6
  5 30  1  0
  5 31  1  0
  6 32  1  0
  7 33  1  0
  8 34  1  0
  9 35  1  0
 10 36  1  0
 14 37  1  0
 15 38  1  0
 16 39  1  1
 17 40  1  0
 17 41  1  0
 18 42  1  6
 20 43  1  0
 20 44  1  0
 21 45  1  0
 22 46  1  0
 23 47  1  0
 24 48  1  0
 25 49  1  0
M  END
> <Uni-Dock RESULT> 
ENERGY=   -6.005  LOWER_BOUND=    3.121  UPPER_BOUND=    4.289
INTER + INTRA:          -6.005
INTER:                  -6.005
INTRA:                   0.000
UNBOUND:                 0.000

$$$$

     RDKit          3D

 49 50  0  0  0  0  0  0  0  0999 V2000
   43.6448    3.6030   11.2067 C   0  0  1  0  0  0  0  0  0  0  0  0
   44.3126    3.6370   12.5629 C   0  0  0  0  0  0  0  0  0  0  0  0
   43.7592    4.9002   11.9806 C   0  0  2  0  0  0  0  0  0  0  0  0
   44.4679    3.4010    9.9562 C   0  0  0  0  0  0  0  0  0  0  0  0
   42.5633    5.5051   12.5671 N   0  0  0  0  0  0  0  0  0  0  0  0
   44.3535    4.2781    8.8641 C   0  0  0  0  0  0  0  0  0  0  0  0
   45.3495    2.3157    9.8232 C   0  0  0  0  0  0  0  0  0  0  0  0
   46.0987    2.1236    8.6592 C   0  0  0  0  0  0  0  0  0  0  0  0
   45.0987    4.0910    7.6971 C   0  0  0  0  0  0  0  0  0  0  0  0
   45.9738    3.0136    7.5962 C   0  0  0  0  0  0  0  0  0  0  0  0
   44.5373    3.2861   10.4790 S   0  0  0  0  0  0  0  0  0  0  0  0
   44.9904    2.9833   11.8126 O   0  0  0  0  0  0  0  0  0  0  0  0
   44.3129    2.2910    9.4617 O   0  0  0  0  0  0  0  0  0  0  0  0
   43.1998    4.1579   10.6386 O   0  0  0  0  0  0  0  0  0  0  0  0
   45.5358    4.3674    9.8412 O   0  0  0  0  0  0  0  0  0  0  0  0
   44.4454    3.5073   11.5421 C   0  0  2  0  0  0  0  0  0  0  0  0
   43.0031    3.3413   11.9648 C   0  0  0  0  0  0  0  0  0  0  0  0
   43.6488    4.6885   12.0561 C   0  0  1  0  0  0  0  0  0  0  0  0
   44.8210    3.4297   10.0809 C   0  0  0  0  0  0  0  0  0  0  0  0
   43.9553    5.2566   13.3687 N   0  0  0  0  0  0  0  0  0  0  0  0
   45.5470    4.4606    9.4609 C   0  0  0  0  0  0  0  0  0  0  0  0
   44.4893    2.3117    9.2973 C   0  0  0  0  0  0  0  0  0  0  0  0
   44.8498    2.2336    7.9492 C   0  0  0  0  0  0  0  0  0  0  0  0
   45.9105    4.3884    8.1137 C   0  0  0  0  0  0  0  0  0  0  0  0
   45.5596    3.2740    7.3573 C   0  0  0  0  0  0  0  0  0  0  0  0
   42.6585    3.1445   11.1740 H   0  0  0  0  0  0  0  0  0  0  0  0
   45.3919    3.5462   12.6181 H   0  0  0  0  0  0  0  0  0  0  0  0
   43.7931    3.1647   13.3882 H   0  0  0  0  0  0  0  0  0  0  0  0
   44.4873    5.6255   11.6212 H   0  0  0  0  0  0  0  0  0  0  0  0
   41.9272    4.7981   12.9328 H   0  0  0  0  0  0  0  0  0  0  0  0
   42.8139    6.0938   13.3607 H   0  0  0  0  0  0  0  0  0  0  0  0
   43.6679    5.1215    8.9263 H   0  0  0  0  0  0  0  0  0  0  0  0
   45.4539    1.6064   10.6412 H   0  0  0  0  0  0  0  0  0  0  0  0
   46.7763    1.2773    8.5840 H   0  0  0  0  0  0  0  0  0  0  0  0
   44.9907    4.7857    6.8684 H   0  0  0  0  0  0  0  0  0  0  0  0
   46.5539    2.8655    6.6894 H   0  0  0  0  0  0  0  0  0  0  0  0
   43.2812    4.6638   11.4730 H   0  0  0  0  0  0  0  0  0  0  0  0
   45.4172    4.3311    8.8693 H   0  0  0  0  0  0  0  0  0  0  0  0
   45.1901    3.0951   12.2198 H   0  0  0  0  0  0  0  0  0  0  0  0
   42.2470    3.2017   11.1999 H   0  0  0  0  0  0  0  0  0  0  0  0
   42.8086    2.7858   12.8740 H   0  0  0  0  0  0  0  0  0  0  0  0
   43.3294    5.4263   11.3218 H   0  0  0  0  0  0  0  0  0  0  0  0
   44.2243    4.5345   14.0358 H   0  0  0  0  0  0  0  0  0  0  0  0
   43.1305    5.7086   13.7633 H   0  0  0  0  0  0  0  0  0  0  0  0
   45.8344    5.3356   10.0415 H   0  0  0  0  0  0  0  0  0  0  0  0
   43.9409    1.4864    9.7461 H   0  0  0  0  0  0  0  0  0  0  0  0
   44.5776    1.3587    7.3649 H   0  0  0  0  0  0  0  0  0  0  0  0
   46.4690    5.2023    7.6594 H   0  0  0  0  0  0  0  0  0  0  0  0
   45.8419    3.2151    6.3098 H   0  0  0  0  0  0  0  0  0  0  0  0
  2  1  1  0
  3  1  1  0
  1  4  1  0
  3  5  1  0
  6  4  2  0
  7  4  1  0
  8  7  2  0
  9  6  1  0
 10  9  2  0
  3  2  1  0
  8 10  1  0
 12 11  2  0
 13 11  2  0
 14 11  1  0
 15 11  1  0
 17 16  1  0
 18 16  1  0
 16 19  1  0
 18 20  1  0
 21 19  2  0
 22 19  1  0
 23 22  2  0
 24 21  1  0
 25 24  2  0
 18 17  1  0
 23 25  1  0
  1 26  1  1
  2 27  1  0
  2 28  1  0
  3 29  1  6
  5 30  1  0
  5 31  1  0
  6 32  1  0
  7 33  1  0
  8 34  1  0
  9 35  1  0
 10 36  1  0
 14 37  1  0
 15 38  1  0
 16 39  1  1
 17 40  1  0
 17 41  1  0
 18 42  1  6
 20 43  1  0
 20 44  1  0
 21 45  1  0
 22 46  1  0
 23 47  1  0
 24 48  1  0
 25 49  1  0
M  END
> <Uni-Dock RESULT> 
ENERGY=   -5.896  LOWER_BOUND=    2.110  UPPER_BOUND=    4.163
INTER + INTRA:          -5.896
INTER:                  -5.896
INTRA:                   0.000
UNBOUND:                 0.000

$$$$

     RDKit          3D

 49 50  0  0  0  0  0  0  0  0999 V2000
   43.9929    5.7176   12.5900 C   0  0  1  0  0  0  0  0  0  0  0  0
   43.1862    5.3508   11.3648 C   0  0  0  0  0  0  0  0  0  0  0  0
   44.0916    4.3324   11.9849 C   0  0  2  0  0  0  0  0  0  0  0  0
   45.1603    6.6698   12.4775 C   0  0  0  0  0  0  0  0  0  0  0  0
   43.5175    3.1874   12.6915 N   0  0  0  0  0  0  0  0  0  0  0  0
   46.4229    6.3323   12.9942 C   0  0  0  0  0  0  0  0  0  0  0  0
   45.0222    7.9363   11.8860 C   0  0  0  0  0  0  0  0  0  0  0  0
   46.1007    8.8205   11.7966 C   0  0  0  0  0  0  0  0  0  0  0  0
   47.5049    7.2122   12.9091 C   0  0  0  0  0  0  0  0  0  0  0  0
   47.3434    8.4566   12.3073 C   0  0  0  0  0  0  0  0  0  0  0  0
   44.7171    6.5762   12.1840 S   0  0  0  0  0  0  0  0  0  0  0  0
   43.6796    6.4358   11.1943 O   0  0  0  0  0  0  0  0  0  0  0  0
   44.9243    7.7678   12.9667 O   0  0  0  0  0  0  0  0  0  0  0  0
   44.5633    5.3325   13.1858 O   0  0  0  0  0  0  0  0  0  0  0  0
   46.1238    6.2409   11.4899 O   0  0  0  0  0  0  0  0  0  0  0  0
   43.9658    5.9225   11.7416 C   0  0  2  0  0  0  0  0  0  0  0  0
   43.0381    5.4214   12.8253 C   0  0  0  0  0  0  0  0  0  0  0  0
   43.8851    4.4461   12.0693 C   0  0  1  0  0  0  0  0  0  0  0  0
   45.2028    6.7092   12.1064 C   0  0  0  0  0  0  0  0  0  0  0  0
   43.2574    3.5242   11.1228 N   0  0  0  0  0  0  0  0  0  0  0  0
   46.4730    6.3209   11.6484 C   0  0  0  0  0  0  0  0  0  0  0  0
   45.1263    7.8750   12.8870 C   0  0  0  0  0  0  0  0  0  0  0  0
   46.2691    8.6109   13.2121 C   0  0  0  0  0  0  0  0  0  0  0  0
   47.6193    7.0524   11.9697 C   0  0  0  0  0  0  0  0  0  0  0  0
   47.5165    8.1976   12.7540 C   0  0  0  0  0  0  0  0  0  0  0  0
   43.4338    5.8007   13.5198 H   0  0  0  0  0  0  0  0  0  0  0  0
   43.4798    5.7569   10.4031 H   0  0  0  0  0  0  0  0  0  0  0  0
   42.1145    5.2463   11.4845 H   0  0  0  0  0  0  0  0  0  0  0  0
   45.0024    4.0985   11.4361 H   0  0  0  0  0  0  0  0  0  0  0  0
   42.6439    3.4331   13.1547 H   0  0  0  0  0  0  0  0  0  0  0  0
   43.2868    2.4423   12.0352 H   0  0  0  0  0  0  0  0  0  0  0  0
   46.5623    5.3647   13.4735 H   0  0  0  0  0  0  0  0  0  0  0  0
   44.0563    8.2398   11.4883 H   0  0  0  0  0  0  0  0  0  0  0  0
   45.9672    9.7932   11.3306 H   0  0  0  0  0  0  0  0  0  0  0  0
   48.4703    6.9243   13.3165 H   0  0  0  0  0  0  0  0  0  0  0  0
   48.1831    9.1430   12.2406 H   0  0  0  0  0  0  0  0  0  0  0  0
   44.1982    4.5862   12.6677 H   0  0  0  0  0  0  0  0  0  0  0  0
   46.8236    6.6312   12.0538 H   0  0  0  0  0  0  0  0  0  0  0  0
   43.4891    6.2388   10.8161 H   0  0  0  0  0  0  0  0  0  0  0  0
   43.2967    5.6074   13.8621 H   0  0  0  0  0  0  0  0  0  0  0  0
   41.9734    5.4592   12.6300 H   0  0  0  0  0  0  0  0  0  0  0  0
   44.7237    4.0139   12.6130 H   0  0  0  0  0  0  0  0  0  0  0  0
   42.4616    3.9540   10.6531 H   0  0  0  0  0  0  0  0  0  0  0  0
   42.8870    2.7089   11.6110 H   0  0  0  0  0  0  0  0  0  0  0  0
   46.5684    5.4310   11.0284 H   0  0  0  0  0  0  0  0  0  0  0  0
   44.1582    8.2160   13.2472 H   0  0  0  0  0  0  0  0  0  0  0  0
   46.1820    9.5072   13.8204 H   0  0  0  0  0  0  0  0  0  0  0  0
   48.5895    6.7266   11.6044 H   0  0  0  0  0  0  0  0  0  0  0  0
   48.4063    8.7687   13.0044 H   0  0  0  0  0  0  0  0  0  0  0  0
  2  1  1  0
  3  1  1  0
  1  4  1  0
  3  5  1  0
  6  4  2  0
  7  4  1  0
  8  7  2  0
  9  6  1  0
 10  9  2  0
  3  2  1  0
  8 10  1  0
 12 11  2  0
 13 11  2  0
 14 11  1  0
 15 11  1  0
 17 16  1  0
 18 16  1  0
 16 19  1  0
 18 20  1  0
 21 19  2  0
 22 19  1  0
 23 22  2  0
 24 21  1  0
 25 24  2  0
 18 17  1  0
 23 25  1  0
  1 26  1  1
  2 27  1  0
  2 28  1  0
  3 29  1  6
  5 30  1  0
  5 31  1  0
  6 32  1  0
  7 33  1  0
  8 34  1  0
  9 35  1  0
 10 36  1  0
 14 37  1  0
 15 38  1  0
 16 39  1  1
 17 40  1  0
 17 41  1  0
 18 42  1  6
 20 43  1  0
 20 44  1  0
 21 45  1  0
 22 46  1  0
 23 47  1  0
 24 48  1  0
 25 49  1  0
M  END
> <Uni-Dock RESULT> 
ENERGY=   -5.862  LOWER_BOUND=    2.859  UPPER_BOUND=    4.102
INTER + INTRA:          -5.862
INTER:                  -5.862
INTRA:                   0.000
UNBOUND:                 0.000

$$$$

     RDKit          3D

 49 50  0  0  0  0  0  0  0  0999 V2000
   46.4553    6.8945   12.8732 C   0  0  1  0  0  0  0  0  0  0  0  0
   47.8604    6.3467   12.9824 C   0  0  0  0  0  0  0  0  0  0  0  0
   47.5273    7.3119   11.8876 C   0  0  2  0  0  0  0  0  0  0  0  0
   45.3231    6.0045   12.4171 C   0  0  0  0  0  0  0  0  0  0  0  0
   48.0662    8.6712   11.9315 N   0  0  0  0  0  0  0  0  0  0  0  0
   44.4699    6.3962   11.3714 C   0  0  0  0  0  0  0  0  0  0  0  0
   45.0591    4.7731   13.0390 C   0  0  0  0  0  0  0  0  0  0  0  0
   44.0018    3.9588   12.6241 C   0  0  0  0  0  0  0  0  0  0  0  0
   43.4104    5.5874   10.9525 C   0  0  0  0  0  0  0  0  0  0  0  0
   43.1782    4.3663   11.5786 C   0  0  0  0  0  0  0  0  0  0  0  0
   45.8072    5.9188   12.6399 S   0  0  0  0  0  0  0  0  0  0  0  0
   47.0789    5.4411   13.1197 O   0  0  0  0  0  0  0  0  0  0  0  0
   44.5587    5.7072   13.3270 O   0  0  0  0  0  0  0  0  0  0  0  0
   45.9804    7.4920   12.3771 O   0  0  0  0  0  0  0  0  0  0  0  0
   45.5976    5.3777   11.1446 O   0  0  0  0  0  0  0  0  0  0  0  0
   46.8680    6.1320   12.7689 C   0  0  2  0  0  0  0  0  0  0  0  0
   47.0288    7.4207   13.5434 C   0  0  0  0  0  0  0  0  0  0  0  0
   47.5330    7.3370   12.1367 C   0  0  1  0  0  0  0  0  0  0  0  0
   45.4999    5.6941   12.3013 C   0  0  0  0  0  0  0  0  0  0  0  0
   48.9737    7.3235   11.8840 N   0  0  0  0  0  0  0  0  0  0  0  0
   45.2565    5.3866   10.9521 C   0  0  0  0  0  0  0  0  0  0  0  0
   44.4309    5.5450   13.2007 C   0  0  0  0  0  0  0  0  0  0  0  0
   43.1691    5.1256   12.7702 C   0  0  0  0  0  0  0  0  0  0  0  0
   43.9975    4.9666   10.5154 C   0  0  0  0  0  0  0  0  0  0  0  0
   42.9527    4.8379   11.4259 C   0  0  0  0  0  0  0  0  0  0  0  0
   46.1731    7.6318   13.6221 H   0  0  0  0  0  0  0  0  0  0  0  0
   48.0450    5.3166   12.6978 H   0  0  0  0  0  0  0  0  0  0  0  0
   48.4650    6.6830   13.8163 H   0  0  0  0  0  0  0  0  0  0  0  0
   47.4606    6.8978   10.8828 H   0  0  0  0  0  0  0  0  0  0  0  0
   48.1563    9.0073   12.8891 H   0  0  0  0  0  0  0  0  0  0  0  0
   49.0056    8.6954   11.5364 H   0  0  0  0  0  0  0  0  0  0  0  0
   44.6355    7.3518   10.8767 H   0  0  0  0  0  0  0  0  0  0  0  0
   45.6882    4.4426   13.8625 H   0  0  0  0  0  0  0  0  0  0  0  0
   43.8219    3.0089   13.1205 H   0  0  0  0  0  0  0  0  0  0  0  0
   42.7670    5.9153   10.1404 H   0  0  0  0  0  0  0  0  0  0  0  0
   42.3544    3.7359   11.2552 H   0  0  0  0  0  0  0  0  0  0  0  0
   46.9150    7.6431   12.1272 H   0  0  0  0  0  0  0  0  0  0  0  0
   44.6389    5.4329   10.9499 H   0  0  0  0  0  0  0  0  0  0  0  0
   47.5251    5.3158   13.0620 H   0  0  0  0  0  0  0  0  0  0  0  0
   46.1533    8.0350   13.7235 H   0  0  0  0  0  0  0  0  0  0  0  0
   47.7400    7.4286   14.3602 H   0  0  0  0  0  0  0  0  0  0  0  0
   46.9606    7.8806   11.3868 H   0  0  0  0  0  0  0  0  0  0  0  0
   49.4783    6.8296   12.6190 H   0  0  0  0  0  0  0  0  0  0  0  0
   49.3443    8.2737   11.8804 H   0  0  0  0  0  0  0  0  0  0  0  0
   46.0657    5.4762   10.2292 H   0  0  0  0  0  0  0  0  0  0  0  0
   44.5849    5.7588   14.2561 H   0  0  0  0  0  0  0  0  0  0  0  0
   42.3586    5.0218   13.4865 H   0  0  0  0  0  0  0  0  0  0  0  0
   43.8369    4.7390    9.4650 H   0  0  0  0  0  0  0  0  0  0  0  0
   41.9730    4.5106   11.0890 H   0  0  0  0  0  0  0  0  0  0  0  0
  2  1  1  0
  3  1  1  0
  1  4  1  0
  3  5  1  0
  6  4  2  0
  7  4  1  0
  8  7  2  0
  9  6  1  0
 10  9  2  0
  3  2  1  0
  8 10  1  0
 12 11  2  0
 13 11  2  0
 14 11  1  0
 15 11  1  0
 17 16  1  0
 18 16  1  0
 16 19  1  0
 18 20  1  0
 21 19  2  0
 22 19  1  0
 23 22  2  0
 24 21  1  0
 25 24  2  0
 18 17  1  0
 23 25  1  0
  1 26  1  1
  2 27  1  0
  2 28  1  0
  3 29  1  6
  5 30  1  0
  5 31  1  0
  6 32  1  0
  7 33  1  0
  8 34  1  0
  9 35  1  0
 10 36  1  0
 14 37  1  0
 15 38  1  0
 16 39  1  1
 17 40  1  0
 17 41  1  0
 18 42  1  6
 20 43  1  0
 20 44  1  0
 21 45  1  0
 22 46  1  0
 23 47  1  0
 24 48  1  0
 25 49  1  0
M  END
> <Uni-Dock RESULT> 
ENERGY=   -5.843  LOWER_BOUND=    3.063  UPPER_BOUND=    4.383
INTER + INTRA:          -5.843
INTER:                  -5.843
INTRA:                   0.000
UNBOUND:                 0.000

$$$$

     RDKit          3D

 49 50  0  0  0  0  0  0  0  0999 V2000
   45.2213    5.4463   12.0546 C   0  0  1  0  0  0  0  0  0  0  0  0
   44.1136    4.9749   12.9695 C   0  0  0  0  0  0  0  0  0  0  0  0
   43.8015    5.9407   11.8691 C   0  0  2  0  0  0  0  0  0  0  0  0
   46.2831    6.3909   12.5668 C   0  0  0  0  0  0  0  0  0  0  0  0
   43.0215    5.4958   10.7142 N   0  0  0  0  0  0  0  0  0  0  0  0
   46.5895    7.5778   11.8794 C   0  0  0  0  0  0  0  0  0  0  0  0
   47.0254    6.1053   13.7245 C   0  0  0  0  0  0  0  0  0  0  0  0
   48.0172    6.9744   14.1874 C   0  0  0  0  0  0  0  0  0  0  0  0
   47.5805    8.4504   12.3362 C   0  0  0  0  0  0  0  0  0  0  0  0
   48.2931    8.1487   13.4929 C   0  0  0  0  0  0  0  0  0  0  0  0
   45.9449    6.0391   12.7973 S   0  0  0  0  0  0  0  0  0  0  0  0
   45.0755    5.2552   13.6371 O   0  0  0  0  0  0  0  0  0  0  0  0
   47.3702    5.8458   12.7147 O   0  0  0  0  0  0  0  0  0  0  0  0
   45.3367    5.9636   11.3145 O   0  0  0  0  0  0  0  0  0  0  0  0
   45.7183    7.5885   13.1449 O   0  0  0  0  0  0  0  0  0  0  0  0
   44.9832    5.5352   12.8901 C   0  0  2  0  0  0  0  0  0  0  0  0
   44.8247    4.5470   11.7566 C   0  0  0  0  0  0  0  0  0  0  0  0
   43.8804    5.7031   11.8656 C   0  0  1  0  0  0  0  0  0  0  0  0
   46.1518    6.4924   12.9037 C   0  0  0  0  0  0  0  0  0  0  0  0
   42.4888    5.4671   12.2496 N   0  0  0  0  0  0  0  0  0  0  0  0
   45.9555    7.8780   13.0291 C   0  0  0  0  0  0  0  0  0  0  0  0
   47.4771    6.0323   12.8260 C   0  0  0  0  0  0  0  0  0  0  0  0
   48.5587    6.9170   12.8534 C   0  0  0  0  0  0  0  0  0  0  0  0
   47.0325    8.7677   13.0574 C   0  0  0  0  0  0  0  0  0  0  0  0
   48.3352    8.2859   12.9676 C   0  0  0  0  0  0  0  0  0  0  0  0
   45.5794    4.7196   11.3282 H   0  0  0  0  0  0  0  0  0  0  0  0
   44.0775    5.3510   13.9860 H   0  0  0  0  0  0  0  0  0  0  0  0
   43.7909    3.9449   12.8746 H   0  0  0  0  0  0  0  0  0  0  0  0
   43.5936    6.9659   12.1712 H   0  0  0  0  0  0  0  0  0  0  0  0
   43.2089    4.5198   10.4896 H   0  0  0  0  0  0  0  0  0  0  0  0
   42.0237    5.5504   10.9153 H   0  0  0  0  0  0  0  0  0  0  0  0
   46.0446    7.8236   10.9694 H   0  0  0  0  0  0  0  0  0  0  0  0
   46.8280    5.1883   14.2753 H   0  0  0  0  0  0  0  0  0  0  0  0
   48.5742    6.7308   15.0882 H   0  0  0  0  0  0  0  0  0  0  0  0
   47.7956    9.3618   11.7849 H   0  0  0  0  0  0  0  0  0  0  0  0
   49.0649    8.8252   13.8498 H   0  0  0  0  0  0  0  0  0  0  0  0
   44.3668    5.8638   11.4036 H   0  0  0  0  0  0  0  0  0  0  0  0
   46.5030    8.0752   12.8172 H   0  0  0  0  0  0  0  0  0  0  0  0
   44.6794    5.1833   13.8738 H   0  0  0  0  0  0  0  0  0  0  0  0
   45.5425    4.5645   10.9437 H   0  0  0  0  0  0  0  0  0  0  0  0
   44.4738    3.5528   12.0044 H   0  0  0  0  0  0  0  0  0  0  0  0
   44.0048    6.4974   11.1313 H   0  0  0  0  0  0  0  0  0  0  0  0
   42.4092    4.7006   12.9167 H   0  0  0  0  0  0  0  0  0  0  0  0
   41.9368    5.1899   11.4380 H   0  0  0  0  0  0  0  0  0  0  0  0
   44.9424    8.2692   13.1070 H   0  0  0  0  0  0  0  0  0  0  0  0
   47.6697    4.9649   12.7436 H   0  0  0  0  0  0  0  0  0  0  0  0
   49.5738    6.5347   12.7883 H   0  0  0  0  0  0  0  0  0  0  0  0
   46.8508    9.8349   13.1517 H   0  0  0  0  0  0  0  0  0  0  0  0
   49.1744    8.9756   12.9903 H   0  0  0  0  0  0  0  0  0  0  0  0
  2  1  1  0
  3  1  1  0
  1  4  1  0
  3  5  1  0
  6  4  2  0
  7  4  1  0
  8  7  2  0
  9  6  1  0
 10  9  2  0
  3  2  1  0
  8 10  1  0
 12 11  2  0
 13 11  2  0
 14 11  1  0
 15 11  1  0
 17 16  1  0
 18 16  1  0
 16 19  1  0
 18 20  1  0
 21 19  2  0
 22 19  1  0
 23 22  2  0
 24 21  1  0
 25 24  2  0
 18 17  1  0
 23 25  1  0
  1 26  1  1
  2 27  1  0
  2 28  1  0
  3 29  1  6
  5 30  1  0
  5 31  1  0
  6 32  1  0
  7 33  1  0
  8 34  1  0
  9 35  1  0
 10 36  1  0
 14 37  1  0
 15 38  1  0
 16 39  1  1
 17 40  1  0
 17 41  1  0
 18 42  1  6
 20 43  1  0
 20 44  1  0
 21 45  1  0
 22 46  1  0
 23 47  1  0
 24 48  1  0
 25 49  1  0
M  END
> <Uni-Dock RESULT> 
ENERGY=   -5.313  LOWER_BOUND=    3.519  UPPER_BOUND=    4.808
INTER + INTRA:          -5.313
INTER:                  -5.313
INTRA:                   0.000
UNBOUND:                 0.000

$$$$

     RDKit          3D

 49 50  0  0  0  0  0  0  0  0999 V2000
   42.1602   10.4324   10.9831 C   0  0  1  0  0  0  0  0  0  0  0  0
   42.8327   10.8643    9.6996 C   0  0  0  0  0  0  0  0  0  0  0  0
   43.2983   11.4319   11.0043 C   0  0  2  0  0  0  0  0  0  0  0  0
   40.7554   10.8891   11.2991 C   0  0  0  0  0  0  0  0  0  0  0  0
   44.6012   11.0393   11.5413 N   0  0  0  0  0  0  0  0  0  0  0  0
   40.4493   11.4911   12.5316 C   0  0  0  0  0  0  0  0  0  0  0  0
   39.6991   10.7004   10.3927 C   0  0  0  0  0  0  0  0  0  0  0  0
   38.3977   11.1110   10.6942 C   0  0  0  0  0  0  0  0  0  0  0  0
   39.1502   11.9029   12.8397 C   0  0  0  0  0  0  0  0  0  0  0  0
   38.1242   11.7143   11.9184 C   0  0  0  0  0  0  0  0  0  0  0  0
   41.0437   10.8340   10.8462 S   0  0  0  0  0  0  0  0  0  0  0  0
   41.6400   10.8741    9.5353 O   0  0  0  0  0  0  0  0  0  0  0  0
   39.9307    9.9891   11.1966 O   0  0  0  0  0  0  0  0  0  0  0  0
   42.2371   10.5552   11.8818 O   0  0  0  0  0  0  0  0  0  0  0  0
   40.6239   12.3273   11.2544 O   0  0  0  0  0  0  0  0  0  0  0  0
   41.9660   10.8958   10.2689 C   0  0  2  0  0  0  0  0  0  0  0  0
   42.8937    9.7773   10.6869 C   0  0  0  0  0  0  0  0  0  0  0  0
   43.3033   11.1992   10.9118 C   0  0  1  0  0  0  0  0  0  0  0  0
   40.6875   11.1462   11.0338 C   0  0  0  0  0  0  0  0  0  0  0  0
   44.3814   11.7773   10.1099 N   0  0  0  0  0  0  0  0  0  0  0  0
   40.3887   12.4164   11.5548 C   0  0  0  0  0  0  0  0  0  0  0  0
   39.7358   10.1301   11.2234 C   0  0  0  0  0  0  0  0  0  0  0  0
   38.5464   10.3659   11.9184 C   0  0  0  0  0  0  0  0  0  0  0  0
   39.2013   12.6586   12.2503 C   0  0  0  0  0  0  0  0  0  0  0  0
   38.2804   11.6311   12.4334 C   0  0  0  0  0  0  0  0  0  0  0  0
   42.3933    9.4265   11.3266 H   0  0  0  0  0  0  0  0  0  0  0  0
   42.3023   11.5310    9.0285 H   0  0  0  0  0  0  0  0  0  0  0  0
   43.4524   10.1361    9.1900 H   0  0  0  0  0  0  0  0  0  0  0  0
   43.0377   12.4709   11.1991 H   0  0  0  0  0  0  0  0  0  0  0  0
   44.8304   10.0761   11.3006 H   0  0  0  0  0  0  0  0  0  0  0  0
   45.3410   11.6127   11.1375 H   0  0  0  0  0  0  0  0  0  0  0  0
   41.2406   11.6391   13.2646 H   0  0  0  0  0  0  0  0  0  0  0  0
   39.8937   10.2238    9.4345 H   0  0  0  0  0  0  0  0  0  0  0  0
   37.5995   10.9560    9.9731 H   0  0  0  0  0  0  0  0  0  0  0  0
   38.9425   12.3666   13.8003 H   0  0  0  0  0  0  0  0  0  0  0  0
   37.1129   12.0329   12.1560 H   0  0  0  0  0  0  0  0  0  0  0  0
   43.0484   10.9513   11.5029 H   0  0  0  0  0  0  0  0  0  0  0  0
   39.9606   12.2542   11.9719 H   0  0  0  0  0  0  0  0  0  0  0  0
   41.8920   11.0776    9.1987 H   0  0  0  0  0  0  0  0  0  0  0  0
   42.6405    9.1871   11.5609 H   0  0  0  0  0  0  0  0  0  0  0  0
   43.3751    9.2065    9.9022 H   0  0  0  0  0  0  0  0  0  0  0  0
   43.2880   11.5472   11.9435 H   0  0  0  0  0  0  0  0  0  0  0  0
   44.3802   11.4089    9.1596 H   0  0  0  0  0  0  0  0  0  0  0  0
   45.2898   11.5323   10.5036 H   0  0  0  0  0  0  0  0  0  0  0  0
   41.0963   13.2317   11.4138 H   0  0  0  0  0  0  0  0  0  0  0  0
   39.9247    9.1373   10.8212 H   0  0  0  0  0  0  0  0  0  0  0  0
   37.8288    9.5611   12.0537 H   0  0  0  0  0  0  0  0  0  0  0  0
   38.9979   13.6503   12.6454 H   0  0  0  0  0  0  0  0  0  0  0  0
   37.3560   11.8172   12.9730 H   0  0  0  0  0  0  0  0  0  0  0  0
  2  1  1  0
  3  1  1  0
  1  4  1  0
  3  5  1  0
  6  4  2  0
  7  4  1  0
  8  7  2  0
  9  6  1  0
 10  9  2  0
  3  2  1  0
  8 10  1  0
 12 11  2  0
 13 11  2  0
 14 11  1  0
 15 11  1  0
 17 16  1  0
 18 16  1  0
 16 19  1  0
 18 20  1  0
 21 19  2  0
 22 19  1  0
 23 22  2  0
 24 21  1  0
 25 24  2  0
 18 17  1  0
 23 25  1  0
  1 26  1  1
  2 27  1  0
  2 28  1  0
  3 29  1  6
  5 30  1  0
  5 31  1  0
  6 32  1  0
  7 33  1  0
  8 34  1  0
  9 35  1  0
 10 36  1  0
 14 37  1  0
 15 38  1  0
 16 39  1  1
 17 40  1  0
 17 41  1  0
 18 42  1  6
 20 43  1  0
 20 44  1  0
 21 45  1  0
 22 46  1  0
 23 47  1  0
 24 48  1  0
 25 49  1  0
M  END
> <Uni-Dock RESULT> 
ENERGY=   -4.946  LOWER_BOUND=    6.745  UPPER_BOUND=    8.278
INTER + INTRA:          -4.946
INTER:                  -4.946
INTRA:                   0.000
UNBOUND:                 0.000

$$$$
