
     RDKit          3D

 49 50  0  0  0  0  0  0  0  0999 V2000
   44.5308    2.9952    8.9866 C   0  0  1  0  0  0  0  0  0  0  0  0
   44.7818    2.9165   10.4756 C   0  0  0  0  0  0  0  0  0  0  0  0
   44.6221    4.2542    9.8235 C   0  0  2  0  0  0  0  0  0  0  0  0
   45.6349    2.6555    8.0130 C   0  0  0  0  0  0  0  0  0  0  0  0
   43.4189    5.0457   10.0802 N   0  0  0  0  0  0  0  0  0  0  0  0
   46.2923    1.4147    8.0547 C   0  0  0  0  0  0  0  0  0  0  0  0
   46.0216    3.5577    7.0079 C   0  0  0  0  0  0  0  0  0  0  0  0
   47.0327    3.2443    6.0958 C   0  0  0  0  0  0  0  0  0  0  0  0
   47.3041    1.0950    7.1452 C   0  0  0  0  0  0  0  0  0  0  0  0
   47.6755    2.0120    6.1665 C   0  0  0  0  0  0  0  0  0  0  0  0
   46.0329    3.1554    8.5110 S   0  0  0  0  0  0  0  0  0  0  0  0
   46.9366    2.0368    8.5974 O   0  0  0  0  0  0  0  0  0  0  0  0
   46.4197    4.5209    8.7581 O   0  0  0  0  0  0  0  0  0  0  0  0
   45.3519    3.0775    7.0607 O   0  0  0  0  0  0  0  0  0  0  0  0
   44.7731    2.8622    9.4600 O   0  0  0  0  0  0  0  0  0  0  0  0
   44.5029    3.5639    8.7067 C   0  0  2  0  0  0  0  0  0  0  0  0
   44.7212    4.7627    9.6007 C   0  0  0  0  0  0  0  0  0  0  0  0
   44.5612    3.4059   10.2109 C   0  0  1  0  0  0  0  0  0  0  0  0
   45.6301    3.0390    7.8489 C   0  0  0  0  0  0  0  0  0  0  0  0
   43.3329    3.1060   10.9458 N   0  0  0  0  0  0  0  0  0  0  0  0
   46.3366    3.8795    6.9722 C   0  0  0  0  0  0  0  0  0  0  0  0
   45.9905    1.6813    7.8715 C   0  0  0  0  0  0  0  0  0  0  0  0
   47.0218    1.1864    7.0688 C   0  0  0  0  0  0  0  0  0  0  0  0
   47.3694    3.3912    6.1672 C   0  0  0  0  0  0  0  0  0  0  0  0
   47.7128    2.0434    6.2175 C   0  0  0  0  0  0  0  0  0  0  0  0
   43.5354    2.7059    8.6560 H   0  0  0  0  0  0  0  0  0  0  0  0
   43.9826    2.5343   11.0990 H   0  0  0  0  0  0  0  0  0  0  0  0
   45.7728    2.6485   10.8256 H   0  0  0  0  0  0  0  0  0  0  0  0
   45.5271    4.8509    9.7213 H   0  0  0  0  0  0  0  0  0  0  0  0
   43.5146    5.5691   10.9497 H   0  0  0  0  0  0  0  0  0  0  0  0
   42.5987    4.4530   10.1990 H   0  0  0  0  0  0  0  0  0  0  0  0
   46.0101    0.6839    8.8093 H   0  0  0  0  0  0  0  0  0  0  0  0
   45.5232    4.5228    6.9357 H   0  0  0  0  0  0  0  0  0  0  0  0
   47.3139    3.9631    5.3311 H   0  0  0  0  0  0  0  0  0  0  0  0
   47.7983    0.1287    7.2017 H   0  0  0  0  0  0  0  0  0  0  0  0
   48.4613    1.7657    5.4578 H   0  0  0  0  0  0  0  0  0  0  0  0
   45.3553    2.1361    6.7899 H   0  0  0  0  0  0  0  0  0  0  0  0
   44.3230    3.7183    9.6155 H   0  0  0  0  0  0  0  0  0  0  0  0
   43.5160    3.4912    8.2533 H   0  0  0  0  0  0  0  0  0  0  0  0
   43.9061    5.4715    9.6924 H   0  0  0  0  0  0  0  0  0  0  0  0
   45.7044    5.2165    9.6427 H   0  0  0  0  0  0  0  0  0  0  0  0
   45.4612    2.9622   10.6328 H   0  0  0  0  0  0  0  0  0  0  0  0
   43.4022    3.4352   11.9085 H   0  0  0  0  0  0  0  0  0  0  0  0
   43.1848    2.0987   11.0011 H   0  0  0  0  0  0  0  0  0  0  0  0
   46.0752    4.9341    6.9145 H   0  0  0  0  0  0  0  0  0  0  0  0
   45.4541    0.9963    8.5248 H   0  0  0  0  0  0  0  0  0  0  0  0
   47.2799    0.1314    7.1065 H   0  0  0  0  0  0  0  0  0  0  0  0
   47.9006    4.0646    5.5001 H   0  0  0  0  0  0  0  0  0  0  0  0
   48.5137    1.6611    5.5906 H   0  0  0  0  0  0  0  0  0  0  0  0
  2  1  1  0
  3  1  1  0
  1  4  1  0
  3  5  1  0
  6  4  2  0
  7  4  1  0
  8  7  2  0
  9  6  1  0
 10  9  2  0
  3  2  1  0
  8 10  1  0
 12 11  2  0
 13 11  2  0
 14 11  1  0
 15 11  1  0
 17 16  1  0
 18 16  1  0
 16 19  1  0
 18 20  1  0
 21 19  2  0
 22 19  1  0
 23 22  2  0
 24 21  1  0
 25 24  2  0
 18 17  1  0
 23 25  1  0
  1 26  1  1
  2 27  1  0
  2 28  1  0
  3 29  1  6
  5 30  1  0
  5 31  1  0
  6 32  1  0
  7 33  1  0
  8 34  1  0
  9 35  1  0
 10 36  1  0
 14 37  1  0
 15 38  1  0
 16 39  1  1
 17 40  1  0
 17 41  1  0
 18 42  1  6
 20 43  1  0
 20 44  1  0
 21 45  1  0
 22 46  1  0
 23 47  1  0
 24 48  1  0
 25 49  1  0
M  END
> <Uni-Dock RESULT> 
ENERGY=  -10.119  LOWER_BOUND=    0.000  UPPER_BOUND=    0.000
INTER + INTRA:         -10.119
INTER:                 -10.119
INTRA:                   0.000
UNBOUND:                 0.000

$$$$

     RDKit          3D

 49 50  0  0  0  0  0  0  0  0999 V2000
   43.6190    4.3674   10.3252 C   0  0  1  0  0  0  0  0  0  0  0  0
   43.7994    4.2371   11.8207 C   0  0  0  0  0  0  0  0  0  0  0  0
   44.1151    5.5371   11.1495 C   0  0  2  0  0  0  0  0  0  0  0  0
   44.5615    3.6554    9.3833 C   0  0  0  0  0  0  0  0  0  0  0  0
   43.2464    6.6939   11.3670 N   0  0  0  0  0  0  0  0  0  0  0  0
   44.7588    2.2664    9.4557 C   0  0  0  0  0  0  0  0  0  0  0  0
   45.2505    4.3540    8.3778 C   0  0  0  0  0  0  0  0  0  0  0  0
   46.1132    3.6994    7.4949 C   0  0  0  0  0  0  0  0  0  0  0  0
   45.6199    1.6057    8.5754 C   0  0  0  0  0  0  0  0  0  0  0  0
   46.2991    2.3238    7.5957 C   0  0  0  0  0  0  0  0  0  0  0  0
   45.0955    4.0006    9.8853 S   0  0  0  0  0  0  0  0  0  0  0  0
   45.5650    2.6441   10.0070 O   0  0  0  0  0  0  0  0  0  0  0  0
   45.9172    5.1592   10.1261 O   0  0  0  0  0  0  0  0  0  0  0  0
   44.4568    4.1299    8.4194 O   0  0  0  0  0  0  0  0  0  0  0  0
   43.7926    4.1694   10.8059 O   0  0  0  0  0  0  0  0  0  0  0  0
   43.7909    4.9065   10.0381 C   0  0  2  0  0  0  0  0  0  0  0  0
   44.3849    5.9777   10.9233 C   0  0  0  0  0  0  0  0  0  0  0  0
   43.7628    4.7671   11.5450 C   0  0  1  0  0  0  0  0  0  0  0  0
   44.6901    4.0147    9.2147 C   0  0  0  0  0  0  0  0  0  0  0  0
   42.4914    4.9148   12.2525 N   0  0  0  0  0  0  0  0  0  0  0  0
   45.6565    4.5494    8.3463 C   0  0  0  0  0  0  0  0  0  0  0  0
   44.5687    2.6158    9.2619 C   0  0  0  0  0  0  0  0  0  0  0  0
   45.3868    1.7857    8.4909 C   0  0  0  0  0  0  0  0  0  0  0  0
   46.4784    3.7250    7.5730 C   0  0  0  0  0  0  0  0  0  0  0  0
   46.3438    2.3417    7.6473 C   0  0  0  0  0  0  0  0  0  0  0  0
   42.5911    4.4257    9.9732 H   0  0  0  0  0  0  0  0  0  0  0  0
   42.9059    4.1601   12.4284 H   0  0  0  0  0  0  0  0  0  0  0  0
   44.6339    3.6564   12.1983 H   0  0  0  0  0  0  0  0  0  0  0  0
   45.1705    5.7903   11.0629 H   0  0  0  0  0  0  0  0  0  0  0  0
   43.4968    7.1707   12.2325 H   0  0  0  0  0  0  0  0  0  0  0  0
   42.2717    6.4162   11.4722 H   0  0  0  0  0  0  0  0  0  0  0  0
   44.2310    1.6889   10.2114 H   0  0  0  0  0  0  0  0  0  0  0  0
   45.1100    5.4292    8.2821 H   0  0  0  0  0  0  0  0  0  0  0  0
   46.6362    4.2657    6.7291 H   0  0  0  0  0  0  0  0  0  0  0  0
   45.7563    0.5305    8.6553 H   0  0  0  0  0  0  0  0  0  0  0  0
   46.9687    1.8125    6.9097 H   0  0  0  0  0  0  0  0  0  0  0  0
   44.1464    3.2378    8.1597 H   0  0  0  0  0  0  0  0  0  0  0  0
   43.6562    5.1301   10.9403 H   0  0  0  0  0  0  0  0  0  0  0  0
   42.8468    5.1634    9.5611 H   0  0  0  0  0  0  0  0  0  0  0  0
   43.8565    6.9222   10.9866 H   0  0  0  0  0  0  0  0  0  0  0  0
   45.4627    6.0726   10.9846 H   0  0  0  0  0  0  0  0  0  0  0  0
   44.4508    4.0533   11.9943 H   0  0  0  0  0  0  0  0  0  0  0  0
   42.6493    5.2196   13.2127 H   0  0  0  0  0  0  0  0  0  0  0  0
   42.0098    4.0184   12.3157 H   0  0  0  0  0  0  0  0  0  0  0  0
   45.7691    5.6289    8.2699 H   0  0  0  0  0  0  0  0  0  0  0  0
   43.8193    2.1656    9.9095 H   0  0  0  0  0  0  0  0  0  0  0  0
   45.2715    0.7065    8.5472 H   0  0  0  0  0  0  0  0  0  0  0  0
   47.2192    4.1658    6.9115 H   0  0  0  0  0  0  0  0  0  0  0  0
   46.9799    1.6989    7.0449 H   0  0  0  0  0  0  0  0  0  0  0  0
  2  1  1  0
  3  1  1  0
  1  4  1  0
  3  5  1  0
  6  4  2  0
  7  4  1  0
  8  7  2  0
  9  6  1  0
 10  9  2  0
  3  2  1  0
  8 10  1  0
 12 11  2  0
 13 11  2  0
 14 11  1  0
 15 11  1  0
 17 16  1  0
 18 16  1  0
 16 19  1  0
 18 20  1  0
 21 19  2  0
 22 19  1  0
 23 22  2  0
 24 21  1  0
 25 24  2  0
 18 17  1  0
 23 25  1  0
  1 26  1  1
  2 27  1  0
  2 28  1  0
  3 29  1  6
  5 30  1  0
  5 31  1  0
  6 32  1  0
  7 33  1  0
  8 34  1  0
  9 35  1  0
 10 36  1  0
 14 37  1  0
 15 38  1  0
 16 39  1  1
 17 40  1  0
 17 41  1  0
 18 42  1  6
 20 43  1  0
 20 44  1  0
 21 45  1  0
 22 46  1  0
 23 47  1  0
 24 48  1  0
 25 49  1  0
M  END
> <Uni-Dock RESULT> 
ENERGY=   -9.145  LOWER_BOUND=    1.429  UPPER_BOUND=    2.006
INTER + INTRA:          -9.145
INTER:                  -9.145
INTRA:                   0.000
UNBOUND:                 0.000

$$$$

     RDKit          3D

 49 50  0  0  0  0  0  0  0  0999 V2000
   45.3975    3.1103    9.7807 C   0  0  1  0  0  0  0  0  0  0  0  0
   44.7882    1.9359    9.0487 C   0  0  0  0  0  0  0  0  0  0  0  0
   45.0131    3.2239    8.3202 C   0  0  2  0  0  0  0  0  0  0  0  0
   44.5981    3.8467   10.8301 C   0  0  0  0  0  0  0  0  0  0  0  0
   46.0562    3.3047    7.2977 N   0  0  0  0  0  0  0  0  0  0  0  0
   44.0385    3.1751   11.9297 C   0  0  0  0  0  0  0  0  0  0  0  0
   44.4137    5.2377   10.7608 C   0  0  0  0  0  0  0  0  0  0  0  0
   43.6869    5.9267   11.7352 C   0  0  0  0  0  0  0  0  0  0  0  0
   43.3109    3.8584   12.9078 C   0  0  0  0  0  0  0  0  0  0  0  0
   43.1335    5.2351   12.8086 C   0  0  0  0  0  0  0  0  0  0  0  0
   44.0547    3.8197   10.2298 S   0  0  0  0  0  0  0  0  0  0  0  0
   43.2376    3.2258   11.2569 O   0  0  0  0  0  0  0  0  0  0  0  0
   43.5250    4.5069    9.0798 O   0  0  0  0  0  0  0  0  0  0  0  0
   45.0804    4.8011   10.9769 O   0  0  0  0  0  0  0  0  0  0  0  0
   45.0544    2.6982    9.6673 O   0  0  0  0  0  0  0  0  0  0  0  0
   45.4551    3.6664    9.4807 C   0  0  2  0  0  0  0  0  0  0  0  0
   44.9380    3.7194    8.0616 C   0  0  0  0  0  0  0  0  0  0  0  0
   45.0337    2.4016    8.7639 C   0  0  1  0  0  0  0  0  0  0  0  0
   44.6172    4.2046   10.6166 C   0  0  0  0  0  0  0  0  0  0  0  0
   46.0569    1.4489    8.3348 N   0  0  0  0  0  0  0  0  0  0  0  0
   44.0961    5.5091   10.5888 C   0  0  0  0  0  0  0  0  0  0  0  0
   44.3574    3.4303   11.7597 C   0  0  0  0  0  0  0  0  0  0  0  0
   43.5963    3.9279   12.8208 C   0  0  0  0  0  0  0  0  0  0  0  0
   43.3336    6.0127   11.6462 C   0  0  0  0  0  0  0  0  0  0  0  0
   43.0826    5.2199   12.7623 C   0  0  0  0  0  0  0  0  0  0  0  0
   46.4615    3.0367    9.9960 H   0  0  0  0  0  0  0  0  0  0  0  0
   45.4306    1.0900    8.8361 H   0  0  0  0  0  0  0  0  0  0  0  0
   43.7622    1.6594    9.2658 H   0  0  0  0  0  0  0  0  0  0  0  0
   44.1234    3.8068    8.0873 H   0  0  0  0  0  0  0  0  0  0  0  0
   45.7102    2.9523    6.4060 H   0  0  0  0  0  0  0  0  0  0  0  0
   46.8597    2.7248    7.5353 H   0  0  0  0  0  0  0  0  0  0  0  0
   44.1729    2.1000   12.0260 H   0  0  0  0  0  0  0  0  0  0  0  0
   44.8464    5.7933    9.9306 H   0  0  0  0  0  0  0  0  0  0  0  0
   43.5568    7.0024   11.6540 H   0  0  0  0  0  0  0  0  0  0  0  0
   42.8863    3.3136   13.7469 H   0  0  0  0  0  0  0  0  0  0  0  0
   42.5688    5.7689   13.5680 H   0  0  0  0  0  0  0  0  0  0  0  0
   45.2098    4.4494   11.8819 H   0  0  0  0  0  0  0  0  0  0  0  0
   45.3910    3.0176    8.8045 H   0  0  0  0  0  0  0  0  0  0  0  0
   46.5266    3.8203    9.5948 H   0  0  0  0  0  0  0  0  0  0  0  0
   45.6532    3.9421    7.2780 H   0  0  0  0  0  0  0  0  0  0  0  0
   43.9465    4.1160    7.8767 H   0  0  0  0  0  0  0  0  0  0  0  0
   44.0897    1.9488    9.0616 H   0  0  0  0  0  0  0  0  0  0  0  0
   45.7266    0.9027    7.5395 H   0  0  0  0  0  0  0  0  0  0  0  0
   46.2557    0.7779    9.0761 H   0  0  0  0  0  0  0  0  0  0  0  0
   44.2901    6.1449    9.7275 H   0  0  0  0  0  0  0  0  0  0  0  0
   44.7595    2.4214   11.8250 H   0  0  0  0  0  0  0  0  0  0  0  0
   43.4105    3.3069   13.6931 H   0  0  0  0  0  0  0  0  0  0  0  0
   42.9409    7.0246   11.5969 H   0  0  0  0  0  0  0  0  0  0  0  0
   42.4922    5.6103   13.5867 H   0  0  0  0  0  0  0  0  0  0  0  0
  2  1  1  0
  3  1  1  0
  1  4  1  0
  3  5  1  0
  6  4  2  0
  7  4  1  0
  8  7  2  0
  9  6  1  0
 10  9  2  0
  3  2  1  0
  8 10  1  0
 12 11  2  0
 13 11  2  0
 14 11  1  0
 15 11  1  0
 17 16  1  0
 18 16  1  0
 16 19  1  0
 18 20  1  0
 21 19  2  0
 22 19  1  0
 23 22  2  0
 24 21  1  0
 25 24  2  0
 18 17  1  0
 23 25  1  0
  1 26  1  1
  2 27  1  0
  2 28  1  0
  3 29  1  6
  5 30  1  0
  5 31  1  0
  6 32  1  0
  7 33  1  0
  8 34  1  0
  9 35  1  0
 10 36  1  0
 14 37  1  0
 15 38  1  0
 16 39  1  1
 17 40  1  0
 17 41  1  0
 18 42  1  6
 20 43  1  0
 20 44  1  0
 21 45  1  0
 22 46  1  0
 23 47  1  0
 24 48  1  0
 25 49  1  0
M  END
> <Uni-Dock RESULT> 
ENERGY=   -8.377  LOWER_BOUND=    2.361  UPPER_BOUND=    4.792
INTER + INTRA:          -8.377
INTER:                  -8.377
INTRA:                   0.000
UNBOUND:                 0.000

$$$$

     RDKit          3D

 49 50  0  0  0  0  0  0  0  0999 V2000
   45.7353    3.2859    7.1413 C   0  0  1  0  0  0  0  0  0  0  0  0
   47.1339    3.8070    6.8991 C   0  0  0  0  0  0  0  0  0  0  0  0
   46.9056    2.3325    7.0176 C   0  0  2  0  0  0  0  0  0  0  0  0
   45.0707    3.4937    8.4820 C   0  0  0  0  0  0  0  0  0  0  0  0
   47.0298    1.4832    5.8330 N   0  0  0  0  0  0  0  0  0  0  0  0
   44.9206    4.7767    9.0342 C   0  0  0  0  0  0  0  0  0  0  0  0
   44.5486    2.4119    9.2106 C   0  0  0  0  0  0  0  0  0  0  0  0
   43.9208    2.5988   10.4449 C   0  0  0  0  0  0  0  0  0  0  0  0
   44.2933    4.9704   10.2679 C   0  0  0  0  0  0  0  0  0  0  0  0
   43.7952    3.8797   10.9743 C   0  0  0  0  0  0  0  0  0  0  0  0
   45.7911    3.2113    8.7223 S   0  0  0  0  0  0  0  0  0  0  0  0
   45.7906    4.4248    9.4988 O   0  0  0  0  0  0  0  0  0  0  0  0
   46.5456    2.0349    9.0718 O   0  0  0  0  0  0  0  0  0  0  0  0
   44.2543    2.7899    8.5380 O   0  0  0  0  0  0  0  0  0  0  0  0
   46.1942    3.5769    7.2132 O   0  0  0  0  0  0  0  0  0  0  0  0
   45.6475    2.6638    7.2305 C   0  0  2  0  0  0  0  0  0  0  0  0
   46.8882    1.8012    7.2059 C   0  0  0  0  0  0  0  0  0  0  0  0
   46.9794    3.2377    6.7973 C   0  0  1  0  0  0  0  0  0  0  0  0
   45.0380    3.0830    8.5475 C   0  0  0  0  0  0  0  0  0  0  0  0
   47.1957    3.5549    5.3861 N   0  0  0  0  0  0  0  0  0  0  0  0
   44.7066    2.1400    9.5349 C   0  0  0  0  0  0  0  0  0  0  0  0
   44.7481    4.4306    8.8192 C   0  0  0  0  0  0  0  0  0  0  0  0
   44.1697    4.8230   10.0294 C   0  0  0  0  0  0  0  0  0  0  0  0
   44.1286    2.5257   10.7474 C   0  0  0  0  0  0  0  0  0  0  0  0
   43.8618    3.8692   10.9947 C   0  0  0  0  0  0  0  0  0  0  0  0
   45.0570    3.3310    6.2918 H   0  0  0  0  0  0  0  0  0  0  0  0
   47.3490    4.2314    5.9259 H   0  0  0  0  0  0  0  0  0  0  0  0
   47.6579    4.2965    7.7127 H   0  0  0  0  0  0  0  0  0  0  0  0
   47.2594    1.8629    7.9341 H   0  0  0  0  0  0  0  0  0  0  0  0
   48.0059    1.2390    5.6695 H   0  0  0  0  0  0  0  0  0  0  0  0
   46.7170    1.9654    4.9917 H   0  0  0  0  0  0  0  0  0  0  0  0
   45.2986    5.6408    8.4923 H   0  0  0  0  0  0  0  0  0  0  0  0
   44.6332    1.4048    8.8062 H   0  0  0  0  0  0  0  0  0  0  0  0
   43.5296    1.7432   10.9885 H   0  0  0  0  0  0  0  0  0  0  0  0
   44.1929    5.9737   10.6733 H   0  0  0  0  0  0  0  0  0  0  0  0
   43.3065    4.0276   11.9334 H   0  0  0  0  0  0  0  0  0  0  0  0
   43.7218    3.6108    8.5849 H   0  0  0  0  0  0  0  0  0  0  0  0
   46.4660    2.7431    6.7766 H   0  0  0  0  0  0  0  0  0  0  0  0
   44.9267    2.4702    6.4381 H   0  0  0  0  0  0  0  0  0  0  0  0
   46.9506    1.0390    6.4376 H   0  0  0  0  0  0  0  0  0  0  0  0
   47.3517    1.5183    8.1437 H   0  0  0  0  0  0  0  0  0  0  0  0
   47.4884    3.9015    7.4938 H   0  0  0  0  0  0  0  0  0  0  0  0
   48.1891    3.5174    5.1589 H   0  0  0  0  0  0  0  0  0  0  0  0
   46.8944    4.5074    5.1823 H   0  0  0  0  0  0  0  0  0  0  0  0
   44.9008    1.0848    9.3542 H   0  0  0  0  0  0  0  0  0  0  0  0
   44.9742    5.1876    8.0714 H   0  0  0  0  0  0  0  0  0  0  0  0
   43.9563    5.8727   10.2134 H   0  0  0  0  0  0  0  0  0  0  0  0
   43.8848    1.7751   11.4943 H   0  0  0  0  0  0  0  0  0  0  0  0
   43.4101    4.1711   11.9357 H   0  0  0  0  0  0  0  0  0  0  0  0
  2  1  1  0
  3  1  1  0
  1  4  1  0
  3  5  1  0
  6  4  2  0
  7  4  1  0
  8  7  2  0
  9  6  1  0
 10  9  2  0
  3  2  1  0
  8 10  1  0
 12 11  2  0
 13 11  2  0
 14 11  1  0
 15 11  1  0
 17 16  1  0
 18 16  1  0
 16 19  1  0
 18 20  1  0
 21 19  2  0
 22 19  1  0
 23 22  2  0
 24 21  1  0
 25 24  2  0
 18 17  1  0
 23 25  1  0
  1 26  1  1
  2 27  1  0
  2 28  1  0
  3 29  1  6
  5 30  1  0
  5 31  1  0
  6 32  1  0
  7 33  1  0
  8 34  1  0
  9 35  1  0
 10 36  1  0
 14 37  1  0
 15 38  1  0
 16 39  1  1
 17 40  1  0
 17 41  1  0
 18 42  1  6
 20 43  1  0
 20 44  1  0
 21 45  1  0
 22 46  1  0
 23 47  1  0
 24 48  1  0
 25 49  1  0
M  END
> <Uni-Dock RESULT> 
ENERGY=   -7.875  LOWER_BOUND=    1.974  UPPER_BOUND=    4.250
INTER + INTRA:          -7.875
INTER:                  -7.875
INTRA:                   0.000
UNBOUND:                 0.000

$$$$

     RDKit          3D

 49 50  0  0  0  0  0  0  0  0999 V2000
   44.5534    5.3025   11.2807 C   0  0  1  0  0  0  0  0  0  0  0  0
   43.5588    6.4228   11.0756 C   0  0  0  0  0  0  0  0  0  0  0  0
   43.1877    5.2539   11.9337 C   0  0  2  0  0  0  0  0  0  0  0  0
   44.8798    4.3614   10.1448 C   0  0  0  0  0  0  0  0  0  0  0  0
   43.0670    5.4278   13.3811 N   0  0  0  0  0  0  0  0  0  0  0  0
   45.3461    4.8391    8.9088 C   0  0  0  0  0  0  0  0  0  0  0  0
   44.7597    2.9698   10.2957 C   0  0  0  0  0  0  0  0  0  0  0  0
   45.0728    2.0933    9.2535 C   0  0  0  0  0  0  0  0  0  0  0  0
   45.6615    3.9678    7.8626 C   0  0  0  0  0  0  0  0  0  0  0  0
   45.5223    2.5939    8.0352 C   0  0  0  0  0  0  0  0  0  0  0  0
   44.0705    4.3524   10.1093 S   0  0  0  0  0  0  0  0  0  0  0  0
   44.3199    4.7188    8.7386 O   0  0  0  0  0  0  0  0  0  0  0  0
   42.8724    3.6901   10.5579 O   0  0  0  0  0  0  0  0  0  0  0  0
   45.3347    3.4871   10.5849 O   0  0  0  0  0  0  0  0  0  0  0  0
   44.2326    5.6627   11.0205 O   0  0  0  0  0  0  0  0  0  0  0  0
   44.3792    4.7903   11.6122 C   0  0  2  0  0  0  0  0  0  0  0  0
   42.9588    4.7766   12.1281 C   0  0  0  0  0  0  0  0  0  0  0  0
   43.5127    6.0281   11.5233 C   0  0  1  0  0  0  0  0  0  0  0  0
   44.7405    4.0307   10.3575 C   0  0  0  0  0  0  0  0  0  0  0  0
   43.7987    7.1648   12.3979 N   0  0  0  0  0  0  0  0  0  0  0  0
   44.4350    2.6670   10.2128 C   0  0  0  0  0  0  0  0  0  0  0  0
   45.4275    4.6535    9.3021 C   0  0  0  0  0  0  0  0  0  0  0  0
   45.7786    3.9523    8.1453 C   0  0  0  0  0  0  0  0  0  0  0  0
   44.7826    1.9600    9.0584 C   0  0  0  0  0  0  0  0  0  0  0  0
   45.4536    2.6047    8.0233 C   0  0  0  0  0  0  0  0  0  0  0  0
   45.3939    5.5262   11.9345 H   0  0  0  0  0  0  0  0  0  0  0  0
   43.7731    7.3753   11.5450 H   0  0  0  0  0  0  0  0  0  0  0  0
   43.0629    6.5127   10.1153 H   0  0  0  0  0  0  0  0  0  0  0  0
   42.4632    4.5586   11.5127 H   0  0  0  0  0  0  0  0  0  0  0  0
   42.1469    5.7952   13.6212 H   0  0  0  0  0  0  0  0  0  0  0  0
   43.7403    6.1060   13.7346 H   0  0  0  0  0  0  0  0  0  0  0  0
   45.4667    5.9097    8.7591 H   0  0  0  0  0  0  0  0  0  0  0  0
   44.4159    2.5630   11.2451 H   0  0  0  0  0  0  0  0  0  0  0  0
   44.9667    1.0216    9.3970 H   0  0  0  0  0  0  0  0  0  0  0  0
   46.0177    4.3644    6.9156 H   0  0  0  0  0  0  0  0  0  0  0  0
   45.7673    1.9142    7.2237 H   0  0  0  0  0  0  0  0  0  0  0  0
   46.1015    3.7766   10.0484 H   0  0  0  0  0  0  0  0  0  0  0  0
   43.7939    5.4758   11.8762 H   0  0  0  0  0  0  0  0  0  0  0  0
   45.1548    4.8000   12.3759 H   0  0  0  0  0  0  0  0  0  0  0  0
   42.8185    4.7383   13.2024 H   0  0  0  0  0  0  0  0  0  0  0  0
   42.1997    4.2443   11.5670 H   0  0  0  0  0  0  0  0  0  0  0  0
   43.1246    6.2977   10.5427 H   0  0  0  0  0  0  0  0  0  0  0  0
   42.9559    7.7171   12.5544 H   0  0  0  0  0  0  0  0  0  0  0  0
   44.4719    7.7934   11.9607 H   0  0  0  0  0  0  0  0  0  0  0  0
   43.9181    2.1458   11.0159 H   0  0  0  0  0  0  0  0  0  0  0  0
   45.6970    5.7042    9.3855 H   0  0  0  0  0  0  0  0  0  0  0  0
   46.3097    4.4591    7.3440 H   0  0  0  0  0  0  0  0  0  0  0  0
   44.5315    0.9064    8.9723 H   0  0  0  0  0  0  0  0  0  0  0  0
   45.7272    2.0563    7.1261 H   0  0  0  0  0  0  0  0  0  0  0  0
  2  1  1  0
  3  1  1  0
  1  4  1  0
  3  5  1  0
  6  4  2  0
  7  4  1  0
  8  7  2  0
  9  6  1  0
 10  9  2  0
  3  2  1  0
  8 10  1  0
 12 11  2  0
 13 11  2  0
 14 11  1  0
 15 11  1  0
 17 16  1  0
 18 16  1  0
 16 19  1  0
 18 20  1  0
 21 19  2  0
 22 19  1  0
 23 22  2  0
 24 21  1  0
 25 24  2  0
 18 17  1  0
 23 25  1  0
  1 26  1  1
  2 27  1  0
  2 28  1  0
  3 29  1  6
  5 30  1  0
  5 31  1  0
  6 32  1  0
  7 33  1  0
  8 34  1  0
  9 35  1  0
 10 36  1  0
 14 37  1  0
 15 38  1  0
 16 39  1  1
 17 40  1  0
 17 41  1  0
 18 42  1  6
 20 43  1  0
 20 44  1  0
 21 45  1  0
 22 46  1  0
 23 47  1  0
 24 48  1  0
 25 49  1  0
M  END
> <Uni-Dock RESULT> 
ENERGY=   -7.760  LOWER_BOUND=    2.005  UPPER_BOUND=    3.424
INTER + INTRA:          -7.760
INTER:                  -7.760
INTRA:                   0.000
UNBOUND:                 0.000

$$$$
