
     RDKit          3D

 41 43  0  0  0  0  0  0  0  0999 V2000
   -0.4354    0.3368   -0.8738 C   0  0  0  0  0  0  0  0  0  0  0  0
   -0.9901    1.3877    0.0903 C   0  0  0  0  0  0  0  0  0  0  0  0
   -1.1008   -1.0131   -0.6201 C   0  0  0  0  0  0  0  0  0  0  0  0
   -3.2635    1.2328   -1.0639 C   0  0  0  0  0  0  0  0  0  0  0  0
   -3.3409   -0.0618   -1.4008 C   0  0  0  0  0  0  0  0  0  0  0  0
   -2.3442    1.8019   -0.0506 C   0  0  0  0  0  0  0  0  0  0  0  0
   -2.4974   -1.1533   -0.8539 C   0  0  0  0  0  0  0  0  0  0  0  0
    4.1497   -1.2294    0.5938 N   0  0  0  0  0  0  0  0  0  0  0  0
    1.0938    0.3379   -1.1989 C   0  0  0  0  0  0  0  0  0  0  0  0
   -0.2324    1.9535    1.1402 C   0  0  0  0  0  0  0  0  0  0  0  0
   -0.3798   -2.1469   -0.1843 C   0  0  0  0  0  0  0  0  0  0  0  0
   -2.8567    2.8166    0.7748 C   0  0  0  0  0  0  0  0  0  0  0  0
   -3.1166   -2.3984   -0.6532 C   0  0  0  0  0  0  0  0  0  0  0  0
    3.2565   -0.8511   -0.5129 C   0  0  0  0  0  0  0  0  0  0  0  0
    5.0134   -0.1231    1.0145 C   0  0  0  0  0  0  0  0  0  0  0  0
    2.1030    0.0660   -0.0568 C   0  0  0  0  0  0  0  0  0  0  0  0
   -0.7696    2.9412    1.9672 C   0  0  0  0  0  0  0  0  0  0  0  0
   -1.0196   -3.3684    0.0292 C   0  0  0  0  0  0  0  0  0  0  0  0
   -2.3849   -3.4938   -0.2021 C   0  0  0  0  0  0  0  0  0  0  0  0
   -2.0739    3.3816    1.7770 C   0  0  0  0  0  0  0  0  0  0  0  0
   -0.8286    0.6457   -1.8692 H   0  0  0  0  0  0  0  0  0  0  0  0
   -4.0138    1.8952   -1.4805 H   0  0  0  0  0  0  0  0  0  0  0  0
   -4.1469   -0.3476   -2.0672 H   0  0  0  0  0  0  0  0  0  0  0  0
    3.5819   -1.5462    1.4143 H   0  0  0  0  0  0  0  0  0  0  0  0
    1.2480   -0.3995   -2.0183 H   0  0  0  0  0  0  0  0  0  0  0  0
    1.3499    1.3248   -1.6456 H   0  0  0  0  0  0  0  0  0  0  0  0
    0.7724    1.6602    1.3524 H   0  0  0  0  0  0  0  0  0  0  0  0
    0.6808   -2.1274   -0.0307 H   0  0  0  0  0  0  0  0  0  0  0  0
   -3.8786    3.1573    0.6566 H   0  0  0  0  0  0  0  0  0  0  0  0
   -4.1762   -2.5213   -0.8436 H   0  0  0  0  0  0  0  0  0  0  0  0
    3.8329   -0.3588   -1.3278 H   0  0  0  0  0  0  0  0  0  0  0  0
    2.8362   -1.7856   -0.9414 H   0  0  0  0  0  0  0  0  0  0  0  0
    5.7720   -0.5078    1.7278 H   0  0  0  0  0  0  0  0  0  0  0  0
    4.4277    0.6670    1.5305 H   0  0  0  0  0  0  0  0  0  0  0  0
    5.5531    0.3105    0.1452 H   0  0  0  0  0  0  0  0  0  0  0  0
    2.5512    1.0355    0.2460 H   0  0  0  0  0  0  0  0  0  0  0  0
    1.6046   -0.3683    0.8336 H   0  0  0  0  0  0  0  0  0  0  0  0
   -0.1680    3.3689    2.7592 H   0  0  0  0  0  0  0  0  0  0  0  0
   -0.4493   -4.2260    0.3627 H   0  0  0  0  0  0  0  0  0  0  0  0
   -2.8756   -4.4457   -0.0446 H   0  0  0  0  0  0  0  0  0  0  0  0
   -2.4843    4.1527    2.4162 H   0  0  0  0  0  0  0  0  0  0  0  0
  2  1  1  0
  3  1  1  0
  4  6  1  0
  5  7  1  0
  6  2  2  0
  7  3  2  0
  8 14  1  0
  9  1  1  0
 10  2  1  0
 11  3  1  0
 12  6  1  0
 13  7  1  0
 14 16  1  0
 15  8  1  0
 16  9  1  0
 17 10  2  0
 18 11  2  0
 19 18  1  0
 20 17  1  0
  5  4  2  0
 19 13  2  0
 20 12  2  0
  1 21  1  0
  4 22  1  0
  5 23  1  0
  8 24  1  0
  9 25  1  0
  9 26  1  0
 10 27  1  0
 11 28  1  0
 12 29  1  0
 13 30  1  0
 14 31  1  0
 14 32  1  0
 15 33  1  0
 15 34  1  0
 15 35  1  0
 16 36  1  0
 16 37  1  0
 17 38  1  0
 18 39  1  0
 19 40  1  0
 20 41  1  0
M  END
$$$$
