
     RDKit          3D

 41 43  0  0  0  0  0  0  0  0999 V2000
   -0.4034   -0.4386   -0.0921 C   0  0  0  0  0  0  0  0  0  0  0  0
   -1.2433   -1.5060    0.5858 C   0  0  0  0  0  0  0  0  0  0  0  0
   -1.0313    0.9114    0.2156 C   0  0  0  0  0  0  0  0  0  0  0  0
   -3.1464   -1.0234   -1.0402 C   0  0  0  0  0  0  0  0  0  0  0  0
   -3.0236    0.2982   -1.2513 C   0  0  0  0  0  0  0  0  0  0  0  0
   -2.5482   -1.7715    0.0956 C   0  0  0  0  0  0  0  0  0  0  0  0
   -2.2773    1.2400   -0.3784 C   0  0  0  0  0  0  0  0  0  0  0  0
    4.1933    1.0962   -1.4063 N   0  0  0  0  0  0  0  0  0  0  0  0
    1.1243   -0.5587    0.1582 C   0  0  0  0  0  0  0  0  0  0  0  0
   -0.7858   -2.2114    1.7200 C   0  0  0  0  0  0  0  0  0  0  0  0
   -0.4513    1.8246    1.1234 C   0  0  0  0  0  0  0  0  0  0  0  0
   -3.3111   -2.7962    0.6788 C   0  0  0  0  0  0  0  0  0  0  0  0
   -2.8402    2.5065   -0.1522 C   0  0  0  0  0  0  0  0  0  0  0  0
    3.4417    0.2085   -0.5119 C   0  0  0  0  0  0  0  0  0  0  0  0
    5.6208    1.0486   -1.0860 C   0  0  0  0  0  0  0  0  0  0  0  0
    1.9402    0.3493   -0.7774 C   0  0  0  0  0  0  0  0  0  0  0  0
   -1.5716   -3.2072    2.3026 C   0  0  0  0  0  0  0  0  0  0  0  0
   -1.0416    3.0677    1.3569 C   0  0  0  0  0  0  0  0  0  0  0  0
   -2.2246    3.4142    0.7089 C   0  0  0  0  0  0  0  0  0  0  0  0
   -2.8254   -3.5079    1.7755 C   0  0  0  0  0  0  0  0  0  0  0  0
   -0.5047   -0.6085   -1.1879 H   0  0  0  0  0  0  0  0  0  0  0  0
   -3.8192   -1.5676   -1.6928 H   0  0  0  0  0  0  0  0  0  0  0  0
   -3.6068    0.7259   -2.0586 H   0  0  0  0  0  0  0  0  0  0  0  0
    4.0814    0.7427   -2.3858 H   0  0  0  0  0  0  0  0  0  0  0  0
    1.3815   -0.3391    1.2146 H   0  0  0  0  0  0  0  0  0  0  0  0
    1.4285   -1.6109   -0.0383 H   0  0  0  0  0  0  0  0  0  0  0  0
    0.1792   -2.0092    2.1608 H   0  0  0  0  0  0  0  0  0  0  0  0
    0.4631    1.5994    1.6500 H   0  0  0  0  0  0  0  0  0  0  0  0
   -4.2982   -3.0293    0.2979 H   0  0  0  0  0  0  0  0  0  0  0  0
   -3.7763    2.7825   -0.6227 H   0  0  0  0  0  0  0  0  0  0  0  0
    3.7496   -0.8499   -0.6737 H   0  0  0  0  0  0  0  0  0  0  0  0
    3.6428    0.4827    0.5484 H   0  0  0  0  0  0  0  0  0  0  0  0
    6.0157    0.0129   -1.1823 H   0  0  0  0  0  0  0  0  0  0  0  0
    6.1770    1.7043   -1.7887 H   0  0  0  0  0  0  0  0  0  0  0  0
    5.7980    1.4231   -0.0548 H   0  0  0  0  0  0  0  0  0  0  0  0
    1.7298    0.0735   -1.8340 H   0  0  0  0  0  0  0  0  0  0  0  0
    1.6491    1.4111   -0.6318 H   0  0  0  0  0  0  0  0  0  0  0  0
   -1.2045   -3.7502    3.1640 H   0  0  0  0  0  0  0  0  0  0  0  0
   -0.5773    3.7662    2.0412 H   0  0  0  0  0  0  0  0  0  0  0  0
   -2.6757    4.3817    0.8877 H   0  0  0  0  0  0  0  0  0  0  0  0
   -3.4287   -4.2857    2.2258 H   0  0  0  0  0  0  0  0  0  0  0  0
  2  1  1  0
  3  1  1  0
  4  6  1  0
  5  7  1  0
  6  2  2  0
  7  3  2  0
  8 14  1  0
  9  1  1  0
 10  2  1  0
 11  3  1  0
 12  6  1  0
 13  7  1  0
 14 16  1  0
 15  8  1  0
 16  9  1  0
 17 10  2  0
 18 11  2  0
 19 18  1  0
 20 17  1  0
  5  4  2  0
 19 13  2  0
 20 12  2  0
  1 21  1  0
  4 22  1  0
  5 23  1  0
  8 24  1  0
  9 25  1  0
  9 26  1  0
 10 27  1  0
 11 28  1  0
 12 29  1  0
 13 30  1  0
 14 31  1  0
 14 32  1  0
 15 33  1  0
 15 34  1  0
 15 35  1  0
 16 36  1  0
 16 37  1  0
 17 38  1  0
 18 39  1  0
 19 40  1  0
 20 41  1  0
M  END
$$$$
