
     RDKit          3D

 41 43  0  0  0  0  0  0  0  0999 V2000
   -0.0729   -0.2348    0.1786 C   0  0  0  0  0  0  0  0  0  0  0  0
   -0.8582    1.0283    0.4891 C   0  0  0  0  0  0  0  0  0  0  0  0
   -1.0484   -1.2646   -0.3621 C   0  0  0  0  0  0  0  0  0  0  0  0
   -1.2169    1.3971   -2.0063 C   0  0  0  0  0  0  0  0  0  0  0  0
   -1.3393    0.1415   -2.4705 C   0  0  0  0  0  0  0  0  0  0  0  0
   -1.3664    1.8024   -0.5855 C   0  0  0  0  0  0  0  0  0  0  0  0
   -1.6273   -1.0586   -1.6420 C   0  0  0  0  0  0  0  0  0  0  0  0
    3.5667   -0.6929    0.0357 N   0  0  0  0  0  0  0  0  0  0  0  0
    0.8688   -0.7516    1.3030 C   0  0  0  0  0  0  0  0  0  0  0  0
   -1.1678    1.4175    1.8104 C   0  0  0  0  0  0  0  0  0  0  0  0
   -1.4325   -2.4004    0.3835 C   0  0  0  0  0  0  0  0  0  0  0  0
   -2.0405    3.0043   -0.3154 C   0  0  0  0  0  0  0  0  0  0  0  0
   -2.4865   -2.0319   -2.1772 C   0  0  0  0  0  0  0  0  0  0  0  0
    2.9951    0.5437    0.5822 C   0  0  0  0  0  0  0  0  0  0  0  0
    4.4305   -0.3920   -1.1066 C   0  0  0  0  0  0  0  0  0  0  0  0
    1.9886    0.2356    1.7014 C   0  0  0  0  0  0  0  0  0  0  0  0
   -1.8649    2.6011    2.0584 C   0  0  0  0  0  0  0  0  0  0  0  0
   -2.3102   -3.3419   -0.1565 C   0  0  0  0  0  0  0  0  0  0  0  0
   -2.8262   -3.1646   -1.4381 C   0  0  0  0  0  0  0  0  0  0  0  0
   -2.2848    3.4017    0.9988 C   0  0  0  0  0  0  0  0  0  0  0  0
    0.6132   -0.0051   -0.6631 H   0  0  0  0  0  0  0  0  0  0  0  0
   -1.1148    2.1880   -2.7403 H   0  0  0  0  0  0  0  0  0  0  0  0
   -1.3255    0.0093   -3.5462 H   0  0  0  0  0  0  0  0  0  0  0  0
    4.1644   -1.1300    0.7763 H   0  0  0  0  0  0  0  0  0  0  0  0
    1.3377   -1.7028    0.9692 H   0  0  0  0  0  0  0  0  0  0  0  0
    0.2910   -0.9992    2.2164 H   0  0  0  0  0  0  0  0  0  0  0  0
   -0.8678    0.8248    2.6610 H   0  0  0  0  0  0  0  0  0  0  0  0
   -1.0566   -2.5783    1.3799 H   0  0  0  0  0  0  0  0  0  0  0  0
   -2.4070    3.6218   -1.1267 H   0  0  0  0  0  0  0  0  0  0  0  0
   -2.9147   -1.9020   -3.1640 H   0  0  0  0  0  0  0  0  0  0  0  0
    2.4936    1.1321   -0.2166 H   0  0  0  0  0  0  0  0  0  0  0  0
    3.8042    1.1822    1.0039 H   0  0  0  0  0  0  0  0  0  0  0  0
    4.8783   -1.3343   -1.4868 H   0  0  0  0  0  0  0  0  0  0  0  0
    3.8370    0.0617   -1.9295 H   0  0  0  0  0  0  0  0  0  0  0  0
    5.2532    0.2967   -0.8124 H   0  0  0  0  0  0  0  0  0  0  0  0
    1.5497    1.1906    2.0575 H   0  0  0  0  0  0  0  0  0  0  0  0
    2.5440   -0.2006    2.5601 H   0  0  0  0  0  0  0  0  0  0  0  0
   -2.0783    2.8992    3.0769 H   0  0  0  0  0  0  0  0  0  0  0  0
   -2.5877   -4.2149    0.4202 H   0  0  0  0  0  0  0  0  0  0  0  0
   -3.5008   -3.9009   -1.8558 H   0  0  0  0  0  0  0  0  0  0  0  0
   -2.8198    4.3219    1.1952 H   0  0  0  0  0  0  0  0  0  0  0  0
  2  1  1  0
  3  1  1  0
  4  6  1  0
  5  7  1  0
  6  2  2  0
  7  3  2  0
  8 14  1  0
  9  1  1  0
 10  2  1  0
 11  3  1  0
 12  6  1  0
 13  7  1  0
 14 16  1  0
 15  8  1  0
 16  9  1  0
 17 10  2  0
 18 11  2  0
 19 18  1  0
 20 17  1  0
  5  4  2  0
 19 13  2  0
 20 12  2  0
  1 21  1  0
  4 22  1  0
  5 23  1  0
  8 24  1  0
  9 25  1  0
  9 26  1  0
 10 27  1  0
 11 28  1  0
 12 29  1  0
 13 30  1  0
 14 31  1  0
 14 32  1  0
 15 33  1  0
 15 34  1  0
 15 35  1  0
 16 36  1  0
 16 37  1  0
 17 38  1  0
 18 39  1  0
 19 40  1  0
 20 41  1  0
M  END
$$$$
