
     RDKit          3D

 41 43  0  0  0  0  0  0  0  0999 V2000
   -0.1435    0.5474    0.1256 C   0  0  0  0  0  0  0  0  0  0  0  0
   -0.6767   -0.7984    0.5793 C   0  0  0  0  0  0  0  0  0  0  0  0
   -1.2428    1.5915    0.1566 C   0  0  0  0  0  0  0  0  0  0  0  0
   -2.3891   -0.9408   -1.3087 C   0  0  0  0  0  0  0  0  0  0  0  0
   -2.7064    0.3411   -1.5250 C   0  0  0  0  0  0  0  0  0  0  0  0
   -1.7141   -1.4787   -0.1074 C   0  0  0  0  0  0  0  0  0  0  0  0
   -2.4287    1.4748   -0.6146 C   0  0  0  0  0  0  0  0  0  0  0  0
    4.0279   -1.0914   -0.6905 N   0  0  0  0  0  0  0  0  0  0  0  0
    0.5813    0.5055   -1.2442 C   0  0  0  0  0  0  0  0  0  0  0  0
   -0.0907   -1.4101    1.7070 C   0  0  0  0  0  0  0  0  0  0  0  0
   -1.0653    2.7353    0.9630 C   0  0  0  0  0  0  0  0  0  0  0  0
   -2.1009   -2.7594    0.3256 C   0  0  0  0  0  0  0  0  0  0  0  0
   -3.3767    2.5128   -0.5793 C   0  0  0  0  0  0  0  0  0  0  0  0
    2.9130   -0.1770   -0.4193 C   0  0  0  0  0  0  0  0  0  0  0  0
    5.2003   -0.7106    0.0988 C   0  0  0  0  0  0  0  0  0  0  0  0
    1.7232   -0.5259   -1.3226 C   0  0  0  0  0  0  0  0  0  0  0  0
   -0.5045   -2.6718    2.1331 C   0  0  0  0  0  0  0  0  0  0  0  0
   -2.0290    3.7429    0.9996 C   0  0  0  0  0  0  0  0  0  0  0  0
   -3.1815    3.6334    0.2272 C   0  0  0  0  0  0  0  0  0  0  0  0
   -1.5047   -3.3478    1.4404 C   0  0  0  0  0  0  0  0  0  0  0  0
    0.6322    0.8701    0.8533 H   0  0  0  0  0  0  0  0  0  0  0  0
   -2.7477   -1.6610   -2.0355 H   0  0  0  0  0  0  0  0  0  0  0  0
   -3.2951    0.5544   -2.4102 H   0  0  0  0  0  0  0  0  0  0  0  0
    3.7434   -2.0517   -0.3837 H   0  0  0  0  0  0  0  0  0  0  0  0
    0.9931    1.5151   -1.4644 H   0  0  0  0  0  0  0  0  0  0  0  0
   -0.1297    0.2783   -2.0620 H   0  0  0  0  0  0  0  0  0  0  0  0
    0.6996   -0.9151    2.2573 H   0  0  0  0  0  0  0  0  0  0  0  0
   -0.1729    2.8562    1.5646 H   0  0  0  0  0  0  0  0  0  0  0  0
   -2.8787   -3.3036   -0.1970 H   0  0  0  0  0  0  0  0  0  0  0  0
   -4.2803    2.4510   -1.1743 H   0  0  0  0  0  0  0  0  0  0  0  0
    3.2265    0.8706   -0.6271 H   0  0  0  0  0  0  0  0  0  0  0  0
    2.6130   -0.2583    0.6484 H   0  0  0  0  0  0  0  0  0  0  0  0
    6.0257   -1.4261   -0.1008 H   0  0  0  0  0  0  0  0  0  0  0  0
    4.9708   -0.7317    1.1873 H   0  0  0  0  0  0  0  0  0  0  0  0
    5.5485    0.3041   -0.1913 H   0  0  0  0  0  0  0  0  0  0  0  0
    2.0809   -0.5598   -2.3751 H   0  0  0  0  0  0  0  0  0  0  0  0
    1.3435   -1.5399   -1.0727 H   0  0  0  0  0  0  0  0  0  0  0  0
   -0.0422   -3.1294    2.9982 H   0  0  0  0  0  0  0  0  0  0  0  0
   -1.8773    4.6145    1.6232 H   0  0  0  0  0  0  0  0  0  0  0  0
   -3.9248    4.4198    0.2505 H   0  0  0  0  0  0  0  0  0  0  0  0
   -1.8195   -4.3305    1.7673 H   0  0  0  0  0  0  0  0  0  0  0  0
  2  1  1  0
  3  1  1  0
  4  6  1  0
  5  7  1  0
  6  2  2  0
  7  3  2  0
  8 14  1  0
  9  1  1  0
 10  2  1  0
 11  3  1  0
 12  6  1  0
 13  7  1  0
 14 16  1  0
 15  8  1  0
 16  9  1  0
 17 10  2  0
 18 11  2  0
 19 18  1  0
 20 17  1  0
  5  4  2  0
 19 13  2  0
 20 12  2  0
  1 21  1  0
  4 22  1  0
  5 23  1  0
  8 24  1  0
  9 25  1  0
  9 26  1  0
 10 27  1  0
 11 28  1  0
 12 29  1  0
 13 30  1  0
 14 31  1  0
 14 32  1  0
 15 33  1  0
 15 34  1  0
 15 35  1  0
 16 36  1  0
 16 37  1  0
 17 38  1  0
 18 39  1  0
 19 40  1  0
 20 41  1  0
M  END
$$$$
