
     RDKit          3D

 41 43  0  0  0  0  0  0  0  0999 V2000
   -0.1136   -0.0433   -0.4706 C   0  0  0  0  0  0  0  0  0  0  0  0
   -0.7045    1.3517   -0.5698 C   0  0  0  0  0  0  0  0  0  0  0  0
   -1.1828   -0.9610    0.1009 C   0  0  0  0  0  0  0  0  0  0  0  0
   -2.2618    0.5476   -2.4205 C   0  0  0  0  0  0  0  0  0  0  0  0
   -2.5163   -0.7214   -2.0584 C   0  0  0  0  0  0  0  0  0  0  0  0
   -1.7213    1.6040   -1.5267 C   0  0  0  0  0  0  0  0  0  0  0  0
   -2.3098   -1.2830   -0.6990 C   0  0  0  0  0  0  0  0  0  0  0  0
    4.3459   -0.7130    0.2940 N   0  0  0  0  0  0  0  0  0  0  0  0
    1.2819   -0.1081    0.2066 C   0  0  0  0  0  0  0  0  0  0  0  0
   -0.3074    2.3966    0.2928 C   0  0  0  0  0  0  0  0  0  0  0  0
   -1.1263   -1.4552    1.4228 C   0  0  0  0  0  0  0  0  0  0  0  0
   -2.2328    2.9044   -1.6661 C   0  0  0  0  0  0  0  0  0  0  0  0
   -3.2753   -2.1768   -0.2081 C   0  0  0  0  0  0  0  0  0  0  0  0
    3.2778   -1.5976    0.7990 C   0  0  0  0  0  0  0  0  0  0  0  0
    4.5996    0.4103    1.1990 C   0  0  0  0  0  0  0  0  0  0  0  0
    1.9639   -1.4731    0.0055 C   0  0  0  0  0  0  0  0  0  0  0  0
   -0.8488    3.6758    0.1562 C   0  0  0  0  0  0  0  0  0  0  0  0
   -2.1113   -2.3202    1.9018 C   0  0  0  0  0  0  0  0  0  0  0  0
   -3.1751   -2.6923    1.0835 C   0  0  0  0  0  0  0  0  0  0  0  0
   -1.7994    3.9324   -0.8292 C   0  0  0  0  0  0  0  0  0  0  0  0
    0.0849   -0.3765   -1.5146 H   0  0  0  0  0  0  0  0  0  0  0  0
   -2.5721    0.8496   -3.4140 H   0  0  0  0  0  0  0  0  0  0  0  0
   -3.0144   -1.3523   -2.7855 H   0  0  0  0  0  0  0  0  0  0  0  0
    4.1120   -0.3343   -0.6534 H   0  0  0  0  0  0  0  0  0  0  0  0
    1.2190    0.1286    1.2882 H   0  0  0  0  0  0  0  0  0  0  0  0
    1.9244    0.6682   -0.2624 H   0  0  0  0  0  0  0  0  0  0  0  0
    0.4259    2.2407    1.0704 H   0  0  0  0  0  0  0  0  0  0  0  0
   -0.3221   -1.1948    2.0932 H   0  0  0  0  0  0  0  0  0  0  0  0
   -2.9898    3.1187   -2.4111 H   0  0  0  0  0  0  0  0  0  0  0  0
   -4.1260   -2.4547   -0.8188 H   0  0  0  0  0  0  0  0  0  0  0  0
    3.0771   -1.4429    1.8841 H   0  0  0  0  0  0  0  0  0  0  0  0
    3.6339   -2.6449    0.6987 H   0  0  0  0  0  0  0  0  0  0  0  0
    3.6813    1.0151    1.3551 H   0  0  0  0  0  0  0  0  0  0  0  0
    4.9697    0.0362    2.1776 H   0  0  0  0  0  0  0  0  0  0  0  0
    5.3837    1.0651    0.7637 H   0  0  0  0  0  0  0  0  0  0  0  0
    2.1629   -1.6405   -1.0756 H   0  0  0  0  0  0  0  0  0  0  0  0
    1.2856   -2.2840    0.3446 H   0  0  0  0  0  0  0  0  0  0  0  0
   -0.5267    4.4720    0.8149 H   0  0  0  0  0  0  0  0  0  0  0  0
   -2.0470   -2.7063    2.9110 H   0  0  0  0  0  0  0  0  0  0  0  0
   -3.9334   -3.3686    1.4566 H   0  0  0  0  0  0  0  0  0  0  0  0
   -2.2116    4.9275   -0.9365 H   0  0  0  0  0  0  0  0  0  0  0  0
  2  1  1  0
  3  1  1  0
  4  6  1  0
  5  7  1  0
  6  2  2  0
  7  3  2  0
  8 14  1  0
  9  1  1  0
 10  2  1  0
 11  3  1  0
 12  6  1  0
 13  7  1  0
 14 16  1  0
 15  8  1  0
 16  9  1  0
 17 10  2  0
 18 11  2  0
 19 18  1  0
 20 17  1  0
  5  4  2  0
 19 13  2  0
 20 12  2  0
  1 21  1  0
  4 22  1  0
  5 23  1  0
  8 24  1  0
  9 25  1  0
  9 26  1  0
 10 27  1  0
 11 28  1  0
 12 29  1  0
 13 30  1  0
 14 31  1  0
 14 32  1  0
 15 33  1  0
 15 34  1  0
 15 35  1  0
 16 36  1  0
 16 37  1  0
 17 38  1  0
 18 39  1  0
 19 40  1  0
 20 41  1  0
M  END
$$$$
