
     RDKit          3D

 41 43  0  0  0  0  0  0  0  0999 V2000
   -0.3062   -0.6028    0.8277 C   0  0  0  0  0  0  0  0  0  0  0  0
   -0.5591    0.8883    0.9470 C   0  0  0  0  0  0  0  0  0  0  0  0
   -1.6140   -1.3549    0.6797 C   0  0  0  0  0  0  0  0  0  0  0  0
   -1.6810    1.0492   -1.3416 C   0  0  0  0  0  0  0  0  0  0  0  0
   -2.2492   -0.1540   -1.4840 C   0  0  0  0  0  0  0  0  0  0  0  0
   -1.1954    1.6389   -0.0744 C   0  0  0  0  0  0  0  0  0  0  0  0
   -2.5041   -1.1313   -0.4023 C   0  0  0  0  0  0  0  0  0  0  0  0
    4.4383   -0.2639   -0.7901 N   0  0  0  0  0  0  0  0  0  0  0  0
    0.7090   -0.9708   -0.2801 C   0  0  0  0  0  0  0  0  0  0  0  0
   -0.1091    1.5567    2.1044 C   0  0  0  0  0  0  0  0  0  0  0  0
   -1.9415   -2.3350    1.6397 C   0  0  0  0  0  0  0  0  0  0  0  0
   -1.3280    3.0306    0.0765 C   0  0  0  0  0  0  0  0  0  0  0  0
   -3.6684   -1.9128   -0.5076 C   0  0  0  0  0  0  0  0  0  0  0  0
    3.0985   -0.7863   -1.0969 C   0  0  0  0  0  0  0  0  0  0  0  0
    4.6243    1.0867   -1.3283 C   0  0  0  0  0  0  0  0  0  0  0  0
    2.0960   -0.3633   -0.0169 C   0  0  0  0  0  0  0  0  0  0  0  0
   -0.2703    2.9350    2.2434 C   0  0  0  0  0  0  0  0  0  0  0  0
   -3.1130   -3.0837    1.5279 C   0  0  0  0  0  0  0  0  0  0  0  0
   -3.9734   -2.8755    0.4539 C   0  0  0  0  0  0  0  0  0  0  0  0
   -0.8753    3.6716    1.2292 C   0  0  0  0  0  0  0  0  0  0  0  0
    0.1695   -0.9459    1.7746 H   0  0  0  0  0  0  0  0  0  0  0  0
   -1.6579    1.6842   -2.2201 H   0  0  0  0  0  0  0  0  0  0  0  0
   -2.6403   -0.3947   -2.4662 H   0  0  0  0  0  0  0  0  0  0  0  0
    5.1395   -0.8810   -1.2634 H   0  0  0  0  0  0  0  0  0  0  0  0
    0.3592   -0.6438   -1.2790 H   0  0  0  0  0  0  0  0  0  0  0  0
    0.8067   -2.0788   -0.3120 H   0  0  0  0  0  0  0  0  0  0  0  0
    0.3808    1.0126    2.9023 H   0  0  0  0  0  0  0  0  0  0  0  0
   -1.2850   -2.5299    2.4786 H   0  0  0  0  0  0  0  0  0  0  0  0
   -1.7948    3.6247   -0.7003 H   0  0  0  0  0  0  0  0  0  0  0  0
   -4.3522   -1.7697   -1.3360 H   0  0  0  0  0  0  0  0  0  0  0  0
    2.7499   -0.4549   -2.1019 H   0  0  0  0  0  0  0  0  0  0  0  0
    3.1430   -1.8985   -1.1155 H   0  0  0  0  0  0  0  0  0  0  0  0
    4.5136    1.0927   -2.4352 H   0  0  0  0  0  0  0  0  0  0  0  0
    3.8992    1.7945   -0.8754 H   0  0  0  0  0  0  0  0  0  0  0  0
    5.6460    1.4423   -1.0783 H   0  0  0  0  0  0  0  0  0  0  0  0
    2.0139    0.7437   -0.0034 H   0  0  0  0  0  0  0  0  0  0  0  0
    2.4681   -0.7005    0.9753 H   0  0  0  0  0  0  0  0  0  0  0  0
    0.0829    3.4338    3.1367 H   0  0  0  0  0  0  0  0  0  0  0  0
   -3.3496   -3.8328    2.2726 H   0  0  0  0  0  0  0  0  0  0  0  0
   -4.8781   -3.4628    0.3641 H   0  0  0  0  0  0  0  0  0  0  0  0
   -0.9924    4.7425    1.3347 H   0  0  0  0  0  0  0  0  0  0  0  0
  2  1  1  0
  3  1  1  0
  4  6  1  0
  5  7  1  0
  6  2  2  0
  7  3  2  0
  8 14  1  0
  9  1  1  0
 10  2  1  0
 11  3  1  0
 12  6  1  0
 13  7  1  0
 14 16  1  0
 15  8  1  0
 16  9  1  0
 17 10  2  0
 18 11  2  0
 19 18  1  0
 20 17  1  0
  5  4  2  0
 19 13  2  0
 20 12  2  0
  1 21  1  0
  4 22  1  0
  5 23  1  0
  8 24  1  0
  9 25  1  0
  9 26  1  0
 10 27  1  0
 11 28  1  0
 12 29  1  0
 13 30  1  0
 14 31  1  0
 14 32  1  0
 15 33  1  0
 15 34  1  0
 15 35  1  0
 16 36  1  0
 16 37  1  0
 17 38  1  0
 18 39  1  0
 19 40  1  0
 20 41  1  0
M  END
$$$$
