
     RDKit          3D

 41 43  0  0  0  0  0  0  0  0999 V2000
   -0.3474   -0.5070    0.1183 C   0  0  0  0  0  0  0  0  0  0  0  0
   -1.4771   -1.2339   -0.5884 C   0  0  0  0  0  0  0  0  0  0  0  0
   -0.9078    0.7916    0.6760 C   0  0  0  0  0  0  0  0  0  0  0  0
   -2.6011   -1.6487    1.6617 C   0  0  0  0  0  0  0  0  0  0  0  0
   -2.2803   -0.5447    2.3577 C   0  0  0  0  0  0  0  0  0  0  0  0
   -2.5338   -1.7826    0.1835 C   0  0  0  0  0  0  0  0  0  0  0  0
   -1.8135    0.7356    1.7668 C   0  0  0  0  0  0  0  0  0  0  0  0
    4.5398    0.6445    0.1629 N   0  0  0  0  0  0  0  0  0  0  0  0
    0.9649   -0.3918   -0.7036 C   0  0  0  0  0  0  0  0  0  0  0  0
   -1.5354   -1.3407   -1.9951 C   0  0  0  0  0  0  0  0  0  0  0  0
   -0.6107    2.0489    0.1056 C   0  0  0  0  0  0  0  0  0  0  0  0
   -3.5536   -2.5065   -0.4554 C   0  0  0  0  0  0  0  0  0  0  0  0
   -2.2923    1.9287    2.3318 C   0  0  0  0  0  0  0  0  0  0  0  0
    3.4308    0.1795   -0.6778 C   0  0  0  0  0  0  0  0  0  0  0  0
    5.7409    0.8476   -0.6486 C   0  0  0  0  0  0  0  0  0  0  0  0
    2.1504    0.0784    0.1560 C   0  0  0  0  0  0  0  0  0  0  0  0
   -2.5732   -2.0406   -2.6125 C   0  0  0  0  0  0  0  0  0  0  0  0
   -1.1197    3.2221    0.6647 C   0  0  0  0  0  0  0  0  0  0  0  0
   -1.9457    3.1635    1.7844 C   0  0  0  0  0  0  0  0  0  0  0  0
   -3.5727   -2.6332   -1.8441 C   0  0  0  0  0  0  0  0  0  0  0  0
   -0.0595   -1.1427    0.9860 H   0  0  0  0  0  0  0  0  0  0  0  0
   -3.0406   -2.4709    2.2145 H   0  0  0  0  0  0  0  0  0  0  0  0
   -2.4848   -0.5546    3.4220 H   0  0  0  0  0  0  0  0  0  0  0  0
    4.7575   -0.1063    0.8599 H   0  0  0  0  0  0  0  0  0  0  0  0
    1.2144   -1.3991   -1.1057 H   0  0  0  0  0  0  0  0  0  0  0  0
    0.8406    0.2830   -1.5751 H   0  0  0  0  0  0  0  0  0  0  0  0
   -0.7818   -0.8956   -2.6280 H   0  0  0  0  0  0  0  0  0  0  0  0
    0.0228    2.1437   -0.7628 H   0  0  0  0  0  0  0  0  0  0  0  0
   -4.3524   -2.9551    0.1231 H   0  0  0  0  0  0  0  0  0  0  0  0
   -2.9612    1.9023    3.1838 H   0  0  0  0  0  0  0  0  0  0  0  0
    3.2585    0.9009   -1.5083 H   0  0  0  0  0  0  0  0  0  0  0  0
    3.6705   -0.8179   -1.1124 H   0  0  0  0  0  0  0  0  0  0  0  0
    6.5764    1.1729    0.0066 H   0  0  0  0  0  0  0  0  0  0  0  0
    5.5670    1.6446   -1.4033 H   0  0  0  0  0  0  0  0  0  0  0  0
    6.0396   -0.0945   -1.1596 H   0  0  0  0  0  0  0  0  0  0  0  0
    1.9325    1.0731    0.5992 H   0  0  0  0  0  0  0  0  0  0  0  0
    2.3126   -0.6436    0.9862 H   0  0  0  0  0  0  0  0  0  0  0  0
   -2.6001   -2.1268   -3.6912 H   0  0  0  0  0  0  0  0  0  0  0  0
   -0.8696    4.1810    0.2291 H   0  0  0  0  0  0  0  0  0  0  0  0
   -2.3332    4.0760    2.2189 H   0  0  0  0  0  0  0  0  0  0  0  0
   -4.3719   -3.1812   -2.3264 H   0  0  0  0  0  0  0  0  0  0  0  0
  2  1  1  0
  3  1  1  0
  4  6  1  0
  5  7  1  0
  6  2  2  0
  7  3  2  0
  8 14  1  0
  9  1  1  0
 10  2  1  0
 11  3  1  0
 12  6  1  0
 13  7  1  0
 14 16  1  0
 15  8  1  0
 16  9  1  0
 17 10  2  0
 18 11  2  0
 19 18  1  0
 20 17  1  0
  5  4  2  0
 19 13  2  0
 20 12  2  0
  1 21  1  0
  4 22  1  0
  5 23  1  0
  8 24  1  0
  9 25  1  0
  9 26  1  0
 10 27  1  0
 11 28  1  0
 12 29  1  0
 13 30  1  0
 14 31  1  0
 14 32  1  0
 15 33  1  0
 15 34  1  0
 15 35  1  0
 16 36  1  0
 16 37  1  0
 17 38  1  0
 18 39  1  0
 19 40  1  0
 20 41  1  0
M  END
$$$$
