
     RDKit          3D

 87 92  0  0  0  0  0  0  0  0999 V2000
   27.1223   11.5439   27.6073 N   0  0  0  0  0  0  0  0  0  0  0  0
   26.7632   11.7758   26.2068 C   0  0  0  0  0  0  0  0  0  0  0  0
   28.0111   12.0918   25.3808 C   0  0  0  0  0  0  0  0  0  0  0  0
   28.8608   13.2197   25.9782 C   0  0  0  0  0  0  0  0  0  0  0  0
   28.2241   13.8029   27.2372 C   0  0  0  0  0  0  0  0  0  0  0  0
   27.7825   12.7142   28.2197 C   0  0  0  0  0  0  0  0  0  0  0  0
   30.2214   12.7636   26.2444 N   0  0  0  0  0  0  0  0  0  0  0  0
   25.9853   11.1077   28.4397 C   0  0  0  0  0  0  0  0  0  0  0  0
   25.3780    9.7585   28.0230 C   0  0  0  0  0  0  0  0  0  0  0  0
   24.2145    9.3296   28.9286 C   0  0  0  0  0  0  0  0  0  0  0  0
   24.6752    8.7579   30.2808 C   0  0  0  0  0  0  0  0  0  0  0  0
   23.5372    8.3874   31.2702 C   0  0  0  0  0  0  0  0  0  0  0  0
   24.1275    7.7487   32.5586 C   0  0  0  0  0  0  0  0  0  0  0  0
   22.5014    7.4406   30.6445 C   0  0  0  0  0  0  0  0  0  0  0  0
   21.2271    8.0511   30.6340 C   0  0  0  0  0  0  0  0  0  0  0  0
   21.3272    9.3704   31.2229 C   0  0  0  0  0  0  0  0  0  0  0  0
   22.6646    9.6046   31.6139 C   0  0  0  0  0  0  0  0  0  0  0  0
   20.3577   10.3364   31.4323 C   0  0  0  0  0  0  0  0  0  0  0  0
   20.7342   11.5387   32.0391 C   0  0  0  0  0  0  0  0  0  0  0  0
   22.0638   11.7650   32.4300 C   0  0  0  0  0  0  0  0  0  0  0  0
   23.0438   10.7951   32.2183 C   0  0  0  0  0  0  0  0  0  0  0  0
   22.6919    6.1557   30.1550 C   0  0  0  0  0  0  0  0  0  0  0  0
   21.5850    5.4781   29.6428 C   0  0  0  0  0  0  0  0  0  0  0  0
   20.3176    6.0833   29.6241 C   0  0  0  0  0  0  0  0  0  0  0  0
   20.1315    7.3768   30.1219 C   0  0  0  0  0  0  0  0  0  0  0  0
   25.3289    7.5278   32.7071 O   0  0  0  0  0  0  0  0  0  0  0  0
   23.2148    7.4254   33.5473 N   0  0  0  0  0  0  0  0  0  0  0  0
   23.6163    6.6321   34.7068 C   0  0  0  0  0  0  0  0  0  0  0  0
   31.2989   13.6242   26.1920 C   0  0  0  0  0  0  0  0  0  0  0  0
   32.5925   13.0231   26.5941 C   0  0  0  0  0  0  0  0  0  0  0  0
   31.2331   14.8018   25.8640 O   0  0  0  0  0  0  0  0  0  0  0  0
   33.6920   13.0076   25.7142 C   0  0  0  0  0  0  0  0  0  0  0  0
   34.8995   12.4566   26.1827 C   0  0  0  0  0  0  0  0  0  0  0  0
   35.0061   11.9382   27.4762 C   0  0  0  0  0  0  0  0  0  0  0  0
   33.9074   11.9614   28.3311 C   0  0  0  0  0  0  0  0  0  0  0  0
   32.6998   12.5044   27.8947 C   0  0  0  0  0  0  0  0  0  0  0  0
   33.6231   13.5128   24.3360 C   0  0  0  0  0  0  0  0  0  0  0  0
   34.2055   14.7415   23.9933 C   0  0  0  0  0  0  0  0  0  0  0  0
   34.1468   15.2227   22.6818 C   0  0  0  0  0  0  0  0  0  0  0  0
   33.5021   14.4838   21.6803 C   0  0  0  0  0  0  0  0  0  0  0  0
   32.9277   13.2488   22.0164 C   0  0  0  0  0  0  0  0  0  0  0  0
   32.9846   12.7727   23.3297 C   0  0  0  0  0  0  0  0  0  0  0  0
   33.4440   14.9859   20.2594 C   0  0  0  0  0  0  0  0  0  0  0  0
   23.6362    5.1194   34.4734 C   0  0  0  0  0  0  0  0  0  0  0  0
   24.0100    4.4680   35.5992 F   0  0  0  0  0  0  0  0  0  0  0  0
   22.3988    4.6748   34.1450 F   0  0  0  0  0  0  0  0  0  0  0  0
   24.4777    4.7520   33.4862 F   0  0  0  0  0  0  0  0  0  0  0  0
   33.6816   16.3228   20.1420 F   0  0  0  0  0  0  0  0  0  0  0  0
   34.3614   14.3737   19.4591 F   0  0  0  0  0  0  0  0  0  0  0  0
   32.2338   14.7701   19.6692 F   0  0  0  0  0  0  0  0  0  0  0  0
   26.0241   12.5827   26.1151 H   0  0  0  0  0  0  0  0  0  0  0  0
   26.3155   10.8823   25.7603 H   0  0  0  0  0  0  0  0  0  0  0  0
   28.6062   11.1772   25.2576 H   0  0  0  0  0  0  0  0  0  0  0  0
   27.6920   12.3797   24.3708 H   0  0  0  0  0  0  0  0  0  0  0  0
   28.9361   14.0237   25.2353 H   0  0  0  0  0  0  0  0  0  0  0  0
   27.3464   14.3962   26.9474 H   0  0  0  0  0  0  0  0  0  0  0  0
   28.9093   14.4949   27.7414 H   0  0  0  0  0  0  0  0  0  0  0  0
   27.1348   13.1980   28.9626 H   0  0  0  0  0  0  0  0  0  0  0  0
   28.6577   12.3470   28.7688 H   0  0  0  0  0  0  0  0  0  0  0  0
   30.3480   11.8295   26.6145 H   0  0  0  0  0  0  0  0  0  0  0  0
   26.3364   11.0134   29.4737 H   0  0  0  0  0  0  0  0  0  0  0  0
   25.2012   11.8766   28.4381 H   0  0  0  0  0  0  0  0  0  0  0  0
   24.9745    9.8337   27.0068 H   0  0  0  0  0  0  0  0  0  0  0  0
   26.1511    8.9801   28.0072 H   0  0  0  0  0  0  0  0  0  0  0  0
   23.6446    8.5607   28.3929 H   0  0  0  0  0  0  0  0  0  0  0  0
   23.5386   10.1807   29.0713 H   0  0  0  0  0  0  0  0  0  0  0  0
   25.2844    7.8656   30.0805 H   0  0  0  0  0  0  0  0  0  0  0  0
   25.3466    9.4741   30.7702 H   0  0  0  0  0  0  0  0  0  0  0  0
   19.3271   10.1758   31.1341 H   0  0  0  0  0  0  0  0  0  0  0  0
   19.9876   12.3106   32.2105 H   0  0  0  0  0  0  0  0  0  0  0  0
   22.3309   12.7082   32.9019 H   0  0  0  0  0  0  0  0  0  0  0  0
   24.0703   10.9728   32.5242 H   0  0  0  0  0  0  0  0  0  0  0  0
   23.6695    5.6826   30.1710 H   0  0  0  0  0  0  0  0  0  0  0  0
   21.7034    4.4696   29.2519 H   0  0  0  0  0  0  0  0  0  0  0  0
   19.4698    5.5356   29.2182 H   0  0  0  0  0  0  0  0  0  0  0  0
   19.1461    7.8302   30.1044 H   0  0  0  0  0  0  0  0  0  0  0  0
   22.2269    7.4657   33.3151 H   0  0  0  0  0  0  0  0  0  0  0  0
   24.6078    6.9623   35.0350 H   0  0  0  0  0  0  0  0  0  0  0  0
   22.9051    6.8653   35.5052 H   0  0  0  0  0  0  0  0  0  0  0  0
   35.7691   12.4240   25.5283 H   0  0  0  0  0  0  0  0  0  0  0  0
   35.9512   11.5183   27.8145 H   0  0  0  0  0  0  0  0  0  0  0  0
   33.9948   11.5656   29.3399 H   0  0  0  0  0  0  0  0  0  0  0  0
   31.8536   12.5471   28.5764 H   0  0  0  0  0  0  0  0  0  0  0  0
   34.6959   15.3423   24.7573 H   0  0  0  0  0  0  0  0  0  0  0  0
   34.5993   16.1861   22.4501 H   0  0  0  0  0  0  0  0  0  0  0  0
   32.4247   12.6537   21.2556 H   0  0  0  0  0  0  0  0  0  0  0  0
   32.5246   11.8154   23.5663 H   0  0  0  0  0  0  0  0  0  0  0  0
  1  8  1  0
  8  9  1  0
  9 10  1  0
 10 11  1  0
 11 12  1  0
 12 13  1  0
 12 14  1  0
 14 15  2  0
 15 16  1  0
 16 17  1  0
 17 12  1  0
 16 18  2  0
 18 19  1  0
 19 20  2  0
 20 21  1  0
 21 17  2  0
 14 22  1  0
 22 23  2  0
 23 24  1  0
 24 25  2  0
 25 15  1  0
 13 26  2  0
 13 27  1  0
 27 28  1  0
  7 29  1  0
 29 30  1  0
 29 31  2  0
 30 32  1  0
 32 33  2  0
 33 34  1  0
 34 35  2  0
 35 36  1  0
 36 30  2  0
 32 37  1  0
 37 38  2  0
 38 39  1  0
 39 40  2  0
 40 41  1  0
 41 42  2  0
 42 37  1  0
 40 43  1  0
 28 44  1  0
  1  2  1  0
  2  3  1  0
 44 45  1  0
  3  4  1  0
 44 46  1  0
  4  5  1  0
 44 47  1  0
  5  6  1  0
 43 48  1  0
  6  1  1  0
 43 49  1  0
  4  7  1  0
 43 50  1  0
  2 51  1  0
  2 52  1  0
  3 53  1  0
  3 54  1  0
  4 55  1  0
  5 56  1  0
  5 57  1  0
  6 58  1  0
  6 59  1  0
  7 60  1  0
  8 61  1  0
  8 62  1  0
  9 63  1  0
  9 64  1  0
 10 65  1  0
 10 66  1  0
 11 67  1  0
 11 68  1  0
 18 69  1  0
 19 70  1  0
 20 71  1  0
 21 72  1  0
 22 73  1  0
 23 74  1  0
 24 75  1  0
 25 76  1  0
 27 77  1  0
 28 78  1  0
 28 79  1  0
 33 80  1  0
 34 81  1  0
 35 82  1  0
 36 83  1  0
 38 84  1  0
 39 85  1  0
 41 86  1  0
 42 87  1  0
M  END
> <Uni-Dock RESULT> 
ENERGY=   -4.980  LOWER_BOUND=    0.000  UPPER_BOUND=    0.000
INTER + INTRA:          -4.980
INTER:                  -4.980
INTRA:                   0.000
UNBOUND:                 0.000

$$$$

     RDKit          3D

 87 92  0  0  0  0  0  0  0  0999 V2000
   26.9589   11.3307   27.6632 N   0  0  0  0  0  0  0  0  0  0  0  0
   26.4105   11.9056   26.4331 C   0  0  0  0  0  0  0  0  0  0  0  0
   27.5347   12.2302   25.4480 C   0  0  0  0  0  0  0  0  0  0  0  0
   28.6502   13.0824   26.0646 C   0  0  0  0  0  0  0  0  0  0  0  0
   28.3438   13.4552   27.5130 C   0  0  0  0  0  0  0  0  0  0  0  0
   27.9001   12.2451   28.3403 C   0  0  0  0  0  0  0  0  0  0  0  0
   29.9405   12.4082   25.9607 N   0  0  0  0  0  0  0  0  0  0  0  0
   25.9235   10.8741   28.6093 C   0  0  0  0  0  0  0  0  0  0  0  0
   25.0370    9.7372   28.0758 C   0  0  0  0  0  0  0  0  0  0  0  0
   23.9895    9.2752   29.0991 C   0  0  0  0  0  0  0  0  0  0  0  0
   24.5714    8.3689   30.1981 C   0  0  0  0  0  0  0  0  0  0  0  0
   23.5728    7.9419   31.3078 C   0  0  0  0  0  0  0  0  0  0  0  0
   24.2584    6.9680   32.3067 C   0  0  0  0  0  0  0  0  0  0  0  0
   22.3020    7.2950   30.7357 C   0  0  0  0  0  0  0  0  0  0  0  0
   21.1649    8.0520   31.0973 C   0  0  0  0  0  0  0  0  0  0  0  0
   21.5830    9.1877   31.8926 C   0  0  0  0  0  0  0  0  0  0  0  0
   22.9876    9.1573   32.0437 C   0  0  0  0  0  0  0  0  0  0  0  0
   20.8389   10.2016   32.4714 C   0  0  0  0  0  0  0  0  0  0  0  0
   21.5090   11.1847   33.2062 C   0  0  0  0  0  0  0  0  0  0  0  0
   22.9046   11.1477   33.3574 C   0  0  0  0  0  0  0  0  0  0  0  0
   23.6579   10.1292   32.7736 C   0  0  0  0  0  0  0  0  0  0  0  0
   22.1886    6.1336   29.9840 C   0  0  0  0  0  0  0  0  0  0  0  0
   20.9131    5.7316   29.5861 C   0  0  0  0  0  0  0  0  0  0  0  0
   19.7804    6.4843   29.9373 C   0  0  0  0  0  0  0  0  0  0  0  0
   19.9009    7.6517   30.6978 C   0  0  0  0  0  0  0  0  0  0  0  0
   25.4134    6.5675   32.1661 O   0  0  0  0  0  0  0  0  0  0  0  0
   23.4863    6.5579   33.3794 N   0  0  0  0  0  0  0  0  0  0  0  0
   23.9409    5.4868   34.2632 C   0  0  0  0  0  0  0  0  0  0  0  0
   31.1220   13.1137   25.8563 C   0  0  0  0  0  0  0  0  0  0  0  0
   32.3460   12.2783   25.8691 C   0  0  0  0  0  0  0  0  0  0  0  0
   31.1993   14.3329   25.7770 O   0  0  0  0  0  0  0  0  0  0  0  0
   33.2614   12.3131   24.7994 C   0  0  0  0  0  0  0  0  0  0  0  0
   34.4215   11.5228   24.9027 C   0  0  0  0  0  0  0  0  0  0  0  0
   34.6584   10.7264   26.0265 C   0  0  0  0  0  0  0  0  0  0  0  0
   33.7410   10.7045   27.0735 C   0  0  0  0  0  0  0  0  0  0  0  0
   32.5848   11.4801   26.9996 C   0  0  0  0  0  0  0  0  0  0  0  0
   33.0444   13.1102   23.5841 C   0  0  0  0  0  0  0  0  0  0  0  0
   33.7572   14.2986   23.3700 C   0  0  0  0  0  0  0  0  0  0  0  0
   33.5575   15.0566   22.2121 C   0  0  0  0  0  0  0  0  0  0  0  0
   32.6373   14.6422   21.2395 C   0  0  0  0  0  0  0  0  0  0  0  0
   31.9300   13.4481   21.4445 C   0  0  0  0  0  0  0  0  0  0  0  0
   32.1293   12.6948   22.6053 C   0  0  0  0  0  0  0  0  0  0  0  0
   32.4231   15.4442   19.9804 C   0  0  0  0  0  0  0  0  0  0  0  0
   23.6673    4.0712   33.7488 C   0  0  0  0  0  0  0  0  0  0  0  0
   24.1129    3.1483   34.6326 F   0  0  0  0  0  0  0  0  0  0  0  0
   22.3354    3.8715   33.5979 F   0  0  0  0  0  0  0  0  0  0  0  0
   24.2549    3.8219   32.5613 F   0  0  0  0  0  0  0  0  0  0  0  0
   32.8575   16.7327   20.0726 F   0  0  0  0  0  0  0  0  0  0  0  0
   33.0752   14.9077   18.9109 F   0  0  0  0  0  0  0  0  0  0  0  0
   31.1113   15.5193   19.6156 F   0  0  0  0  0  0  0  0  0  0  0  0
   25.8123   12.8013   26.6462 H   0  0  0  0  0  0  0  0  0  0  0  0
   25.7503   11.1955   25.9250 H   0  0  0  0  0  0  0  0  0  0  0  0
   27.9385   11.2955   25.0370 H   0  0  0  0  0  0  0  0  0  0  0  0
   27.1010   12.7692   24.5958 H   0  0  0  0  0  0  0  0  0  0  0  0
   28.7315   14.0122   25.4875 H   0  0  0  0  0  0  0  0  0  0  0  0
   27.5415   14.2051   27.5231 H   0  0  0  0  0  0  0  0  0  0  0  0
   29.2108   13.9270   27.9907 H   0  0  0  0  0  0  0  0  0  0  0  0
   27.4785   12.6351   29.2760 H   0  0  0  0  0  0  0  0  0  0  0  0
   28.7820   11.6579   28.6227 H   0  0  0  0  0  0  0  0  0  0  0  0
   29.9702   11.4077   26.1143 H   0  0  0  0  0  0  0  0  0  0  0  0
   26.4246   10.5130   29.5148 H   0  0  0  0  0  0  0  0  0  0  0  0
   25.2904   11.7193   28.9109 H   0  0  0  0  0  0  0  0  0  0  0  0
   24.4848   10.0827   27.1945 H   0  0  0  0  0  0  0  0  0  0  0  0
   25.6549    8.8881   27.7580 H   0  0  0  0  0  0  0  0  0  0  0  0
   23.2163    8.7209   28.5534 H   0  0  0  0  0  0  0  0  0  0  0  0
   23.4998   10.1547   29.5331 H   0  0  0  0  0  0  0  0  0  0  0  0
   24.9796    7.4708   29.7143 H   0  0  0  0  0  0  0  0  0  0  0  0
   25.4266    8.8692   30.6688 H   0  0  0  0  0  0  0  0  0  0  0  0
   19.7605   10.2436   32.3616 H   0  0  0  0  0  0  0  0  0  0  0  0
   20.9423   11.9905   33.6671 H   0  0  0  0  0  0  0  0  0  0  0  0
   23.4021   11.9234   33.9356 H   0  0  0  0  0  0  0  0  0  0  0  0
   24.7365   10.1026   32.8948 H   0  0  0  0  0  0  0  0  0  0  0  0
   23.0615    5.5466   29.7133 H   0  0  0  0  0  0  0  0  0  0  0  0
   20.7928    4.8255   28.9958 H   0  0  0  0  0  0  0  0  0  0  0  0
   18.7964    6.1516   29.6141 H   0  0  0  0  0  0  0  0  0  0  0  0
   19.0169    8.2210   30.9649 H   0  0  0  0  0  0  0  0  0  0  0  0
   22.4942    6.7744   33.3624 H   0  0  0  0  0  0  0  0  0  0  0  0
   25.0147    5.6073   34.4416 H   0  0  0  0  0  0  0  0  0  0  0  0
   23.4251    5.6304   35.2177 H   0  0  0  0  0  0  0  0  0  0  0  0
   35.1491   11.5215   24.0927 H   0  0  0  0  0  0  0  0  0  0  0  0
   35.5636   10.1250   26.0822 H   0  0  0  0  0  0  0  0  0  0  0  0
   33.9313   10.0911   27.9507 H   0  0  0  0  0  0  0  0  0  0  0  0
   31.8862   11.4822   27.8330 H   0  0  0  0  0  0  0  0  0  0  0  0
   34.4640   14.6508   24.1193 H   0  0  0  0  0  0  0  0  0  0  0  0
   34.1187   15.9809   22.0806 H   0  0  0  0  0  0  0  0  0  0  0  0
   31.2125   13.1023   20.7019 H   0  0  0  0  0  0  0  0  0  0  0  0
   31.5626   11.7763   22.7442 H   0  0  0  0  0  0  0  0  0  0  0  0
  1  8  1  0
  8  9  1  0
  9 10  1  0
 10 11  1  0
 11 12  1  0
 12 13  1  0
 12 14  1  0
 14 15  2  0
 15 16  1  0
 16 17  1  0
 17 12  1  0
 16 18  2  0
 18 19  1  0
 19 20  2  0
 20 21  1  0
 21 17  2  0
 14 22  1  0
 22 23  2  0
 23 24  1  0
 24 25  2  0
 25 15  1  0
 13 26  2  0
 13 27  1  0
 27 28  1  0
  7 29  1  0
 29 30  1  0
 29 31  2  0
 30 32  1  0
 32 33  2  0
 33 34  1  0
 34 35  2  0
 35 36  1  0
 36 30  2  0
 32 37  1  0
 37 38  2  0
 38 39  1  0
 39 40  2  0
 40 41  1  0
 41 42  2  0
 42 37  1  0
 40 43  1  0
 28 44  1  0
  1  2  1  0
  2  3  1  0
 44 45  1  0
  3  4  1  0
 44 46  1  0
  4  5  1  0
 44 47  1  0
  5  6  1  0
 43 48  1  0
  6  1  1  0
 43 49  1  0
  4  7  1  0
 43 50  1  0
  2 51  1  0
  2 52  1  0
  3 53  1  0
  3 54  1  0
  4 55  1  0
  5 56  1  0
  5 57  1  0
  6 58  1  0
  6 59  1  0
  7 60  1  0
  8 61  1  0
  8 62  1  0
  9 63  1  0
  9 64  1  0
 10 65  1  0
 10 66  1  0
 11 67  1  0
 11 68  1  0
 18 69  1  0
 19 70  1  0
 20 71  1  0
 21 72  1  0
 22 73  1  0
 23 74  1  0
 24 75  1  0
 25 76  1  0
 27 77  1  0
 28 78  1  0
 28 79  1  0
 33 80  1  0
 34 81  1  0
 35 82  1  0
 36 83  1  0
 38 84  1  0
 39 85  1  0
 41 86  1  0
 42 87  1  0
M  END
> <Uni-Dock RESULT> 
ENERGY=   -4.504  LOWER_BOUND=    0.953  UPPER_BOUND=    1.001
INTER + INTRA:          -4.504
INTER:                  -4.504
INTRA:                   0.000
UNBOUND:                 0.000

$$$$

     RDKit          3D

 87 92  0  0  0  0  0  0  0  0999 V2000
   28.8170   10.0127   28.3402 N   0  0  0  0  0  0  0  0  0  0  0  0
   30.0485    9.3111   27.9720 C   0  0  0  0  0  0  0  0  0  0  0  0
   29.9909    7.8536   28.4323 C   0  0  0  0  0  0  0  0  0  0  0  0
   29.6336    7.7028   29.9157 C   0  0  0  0  0  0  0  0  0  0  0  0
   29.4739    9.0577   30.6008 C   0  0  0  0  0  0  0  0  0  0  0  0
   28.5830   10.0104   29.7981 C   0  0  0  0  0  0  0  0  0  0  0  0
   28.4344    6.8881   30.0838 N   0  0  0  0  0  0  0  0  0  0  0  0
   28.7474   11.3896   27.8157 C   0  0  0  0  0  0  0  0  0  0  0  0
   28.7381   11.4817   26.2814 C   0  0  0  0  0  0  0  0  0  0  0  0
   28.6404   12.9288   25.7771 C   0  0  0  0  0  0  0  0  0  0  0  0
   27.2183   13.5095   25.8675 C   0  0  0  0  0  0  0  0  0  0  0  0
   27.0787   14.9986   25.4503 C   0  0  0  0  0  0  0  0  0  0  0  0
   25.5890   15.4389   25.5076 C   0  0  0  0  0  0  0  0  0  0  0  0
   27.6511   15.2715   24.0508 C   0  0  0  0  0  0  0  0  0  0  0  0
   28.7066   16.2076   24.1302 C   0  0  0  0  0  0  0  0  0  0  0  0
   28.8921   16.5988   25.5122 C   0  0  0  0  0  0  0  0  0  0  0  0
   27.9538   15.9161   26.3183 C   0  0  0  0  0  0  0  0  0  0  0  0
   29.7925   17.4825   26.0823 C   0  0  0  0  0  0  0  0  0  0  0  0
   29.7463   17.6820   27.4656 C   0  0  0  0  0  0  0  0  0  0  0  0
   28.8089   17.0047   28.2621 C   0  0  0  0  0  0  0  0  0  0  0  0
   27.9018   16.1116   27.6915 C   0  0  0  0  0  0  0  0  0  0  0  0
   27.2446   14.7414   22.8339 C   0  0  0  0  0  0  0  0  0  0  0  0
   27.9136   15.1554   21.6817 C   0  0  0  0  0  0  0  0  0  0  0  0
   28.9678   16.0806   21.7563 C   0  0  0  0  0  0  0  0  0  0  0  0
   29.3705   16.6137   22.9849 C   0  0  0  0  0  0  0  0  0  0  0  0
   24.6726   14.6673   25.7885 O   0  0  0  0  0  0  0  0  0  0  0  0
   25.3382   16.7674   25.2119 N   0  0  0  0  0  0  0  0  0  0  0  0
   23.9710   17.2478   25.0253 C   0  0  0  0  0  0  0  0  0  0  0  0
   28.2356    6.1119   31.2074 C   0  0  0  0  0  0  0  0  0  0  0  0
   26.9193    5.4336   31.2673 C   0  0  0  0  0  0  0  0  0  0  0  0
   29.0467    5.9817   32.1151 O   0  0  0  0  0  0  0  0  0  0  0  0
   26.8275    4.0317   31.3664 C   0  0  0  0  0  0  0  0  0  0  0  0
   25.5433    3.4635   31.4607 C   0  0  0  0  0  0  0  0  0  0  0  0
   24.3954    4.2607   31.4531 C   0  0  0  0  0  0  0  0  0  0  0  0
   24.5066    5.6449   31.3533 C   0  0  0  0  0  0  0  0  0  0  0  0
   25.7663    6.2352   31.2621 C   0  0  0  0  0  0  0  0  0  0  0  0
   28.0015    3.1481   31.3489 C   0  0  0  0  0  0  0  0  0  0  0  0
   28.4605    2.5430   32.5276 C   0  0  0  0  0  0  0  0  0  0  0  0
   29.5738    1.6972   32.5138 C   0  0  0  0  0  0  0  0  0  0  0  0
   30.2556    1.4369   31.3171 C   0  0  0  0  0  0  0  0  0  0  0  0
   29.7932    2.0315   30.1336 C   0  0  0  0  0  0  0  0  0  0  0  0
   28.6821    2.8800   30.1519 C   0  0  0  0  0  0  0  0  0  0  0  0
   31.4494    0.5158   31.2872 C   0  0  0  0  0  0  0  0  0  0  0  0
   23.3919   17.0083   23.6287 C   0  0  0  0  0  0  0  0  0  0  0  0
   22.1304   17.4915   23.5463 F   0  0  0  0  0  0  0  0  0  0  0  0
   24.1302   17.6534   22.6931 F   0  0  0  0  0  0  0  0  0  0  0  0
   23.3561   15.7033   23.2925 F   0  0  0  0  0  0  0  0  0  0  0  0
   32.0190    0.3196   32.5097 F   0  0  0  0  0  0  0  0  0  0  0  0
   31.1310   -0.7248   30.8221 F   0  0  0  0  0  0  0  0  0  0  0  0
   32.4498    0.9696   30.4793 F   0  0  0  0  0  0  0  0  0  0  0  0
   30.9312    9.8138   28.3889 H   0  0  0  0  0  0  0  0  0  0  0  0
   30.1800    9.2868   26.8855 H   0  0  0  0  0  0  0  0  0  0  0  0
   29.2819    7.3014   27.8013 H   0  0  0  0  0  0  0  0  0  0  0  0
   30.9720    7.3961   28.2514 H   0  0  0  0  0  0  0  0  0  0  0  0
   30.4521    7.1679   30.4138 H   0  0  0  0  0  0  0  0  0  0  0  0
   30.4661    9.5140   30.7178 H   0  0  0  0  0  0  0  0  0  0  0  0
   29.0679    8.9425   31.6130 H   0  0  0  0  0  0  0  0  0  0  0  0
   28.7171   11.0117   30.2282 H   0  0  0  0  0  0  0  0  0  0  0  0
   27.5318    9.7450   29.9612 H   0  0  0  0  0  0  0  0  0  0  0  0
   27.6755    7.0140   29.4253 H   0  0  0  0  0  0  0  0  0  0  0  0
   27.8236   11.8488   28.1857 H   0  0  0  0  0  0  0  0  0  0  0  0
   29.5806   11.9855   28.2118 H   0  0  0  0  0  0  0  0  0  0  0  0
   29.6726   11.0718   25.8815 H   0  0  0  0  0  0  0  0  0  0  0  0
   27.9183   10.8813   25.8676 H   0  0  0  0  0  0  0  0  0  0  0  0
   28.9615   12.9360   24.7284 H   0  0  0  0  0  0  0  0  0  0  0  0
   29.3546   13.5502   26.3297 H   0  0  0  0  0  0  0  0  0  0  0  0
   26.5616   12.8945   25.2367 H   0  0  0  0  0  0  0  0  0  0  0  0
   26.8416   13.3948   26.8913 H   0  0  0  0  0  0  0  0  0  0  0  0
   30.5231   18.0114   25.4795 H   0  0  0  0  0  0  0  0  0  0  0  0
   30.4465   18.3709   27.9326 H   0  0  0  0  0  0  0  0  0  0  0  0
   28.7921   17.1788   29.3359 H   0  0  0  0  0  0  0  0  0  0  0  0
   27.1769   15.5917   28.3103 H   0  0  0  0  0  0  0  0  0  0  0  0
   26.4275   14.0285   22.7714 H   0  0  0  0  0  0  0  0  0  0  0  0
   27.6174   14.7570   20.7134 H   0  0  0  0  0  0  0  0  0  0  0  0
   29.4754   16.3870   20.8442 H   0  0  0  0  0  0  0  0  0  0  0  0
   30.1839   17.3303   23.0268 H   0  0  0  0  0  0  0  0  0  0  0  0
   26.0960   17.3196   24.8218 H   0  0  0  0  0  0  0  0  0  0  0  0
   23.3249   16.7749   25.7727 H   0  0  0  0  0  0  0  0  0  0  0  0
   23.9879   18.3228   25.2301 H   0  0  0  0  0  0  0  0  0  0  0  0
   25.4340    2.3826   31.5342 H   0  0  0  0  0  0  0  0  0  0  0  0
   23.4140    3.7966   31.5279 H   0  0  0  0  0  0  0  0  0  0  0  0
   23.6128    6.2639   31.3564 H   0  0  0  0  0  0  0  0  0  0  0  0
   25.8487    7.3185   31.2144 H   0  0  0  0  0  0  0  0  0  0  0  0
   27.9588    2.7441   33.4726 H   0  0  0  0  0  0  0  0  0  0  0  0
   29.9121    1.2514   33.4483 H   0  0  0  0  0  0  0  0  0  0  0  0
   30.3030    1.8419   29.1901 H   0  0  0  0  0  0  0  0  0  0  0  0
   28.3480    3.3349   29.2215 H   0  0  0  0  0  0  0  0  0  0  0  0
  1  8  1  0
  8  9  1  0
  9 10  1  0
 10 11  1  0
 11 12  1  0
 12 13  1  0
 12 14  1  0
 14 15  2  0
 15 16  1  0
 16 17  1  0
 17 12  1  0
 16 18  2  0
 18 19  1  0
 19 20  2  0
 20 21  1  0
 21 17  2  0
 14 22  1  0
 22 23  2  0
 23 24  1  0
 24 25  2  0
 25 15  1  0
 13 26  2  0
 13 27  1  0
 27 28  1  0
  7 29  1  0
 29 30  1  0
 29 31  2  0
 30 32  1  0
 32 33  2  0
 33 34  1  0
 34 35  2  0
 35 36  1  0
 36 30  2  0
 32 37  1  0
 37 38  2  0
 38 39  1  0
 39 40  2  0
 40 41  1  0
 41 42  2  0
 42 37  1  0
 40 43  1  0
 28 44  1  0
  1  2  1  0
  2  3  1  0
 44 45  1  0
  3  4  1  0
 44 46  1  0
  4  5  1  0
 44 47  1  0
  5  6  1  0
 43 48  1  0
  6  1  1  0
 43 49  1  0
  4  7  1  0
 43 50  1  0
  2 51  1  0
  2 52  1  0
  3 53  1  0
  3 54  1  0
  4 55  1  0
  5 56  1  0
  5 57  1  0
  6 58  1  0
  6 59  1  0
  7 60  1  0
  8 61  1  0
  8 62  1  0
  9 63  1  0
  9 64  1  0
 10 65  1  0
 10 66  1  0
 11 67  1  0
 11 68  1  0
 18 69  1  0
 19 70  1  0
 20 71  1  0
 21 72  1  0
 22 73  1  0
 23 74  1  0
 24 75  1  0
 25 76  1  0
 27 77  1  0
 28 78  1  0
 28 79  1  0
 33 80  1  0
 34 81  1  0
 35 82  1  0
 36 83  1  0
 38 84  1  0
 39 85  1  0
 41 86  1  0
 42 87  1  0
M  END
> <Uni-Dock RESULT> 
ENERGY=   -4.414  LOWER_BOUND=    5.541  UPPER_BOUND=   12.496
INTER + INTRA:          -4.414
INTER:                  -4.414
INTRA:                   0.000
UNBOUND:                 0.000

$$$$

     RDKit          3D

 87 92  0  0  0  0  0  0  0  0999 V2000
   28.8053   10.0534   28.3117 N   0  0  0  0  0  0  0  0  0  0  0  0
   30.0346    9.3499   27.9401 C   0  0  0  0  0  0  0  0  0  0  0  0
   29.9776    7.8935   28.4040 C   0  0  0  0  0  0  0  0  0  0  0  0
   29.6264    7.7465   29.8892 C   0  0  0  0  0  0  0  0  0  0  0  0
   29.4707    9.1031   30.5718 C   0  0  0  0  0  0  0  0  0  0  0  0
   28.5774   10.0547   29.7706 C   0  0  0  0  0  0  0  0  0  0  0  0
   28.4271    6.9332   30.0642 N   0  0  0  0  0  0  0  0  0  0  0  0
   28.7348   11.4292   27.7843 C   0  0  0  0  0  0  0  0  0  0  0  0
   28.7192   11.5177   26.2498 C   0  0  0  0  0  0  0  0  0  0  0  0
   28.6206   12.9638   25.7426 C   0  0  0  0  0  0  0  0  0  0  0  0
   27.1994   13.5459   25.8375 C   0  0  0  0  0  0  0  0  0  0  0  0
   27.0595   15.0342   25.4174 C   0  0  0  0  0  0  0  0  0  0  0  0
   25.5704   15.4760   25.4799 C   0  0  0  0  0  0  0  0  0  0  0  0
   27.6263   15.3033   24.0149 C   0  0  0  0  0  0  0  0  0  0  0  0
   28.6830   16.2386   24.0878 C   0  0  0  0  0  0  0  0  0  0  0  0
   28.8746   16.6329   25.4681 C   0  0  0  0  0  0  0  0  0  0  0  0
   27.9390   15.9529   26.2797 C   0  0  0  0  0  0  0  0  0  0  0  0
   29.7781   17.5171   26.0324 C   0  0  0  0  0  0  0  0  0  0  0  0
   29.7378   17.7199   27.4154 C   0  0  0  0  0  0  0  0  0  0  0  0
   28.8031   17.0452   28.2173 C   0  0  0  0  0  0  0  0  0  0  0  0
   27.8929   16.1517   27.6526 C   0  0  0  0  0  0  0  0  0  0  0  0
   27.2142   14.7708   22.8011 C   0  0  0  0  0  0  0  0  0  0  0  0
   27.8788   15.1815   21.6450 C   0  0  0  0  0  0  0  0  0  0  0  0
   28.9342   16.1059   21.7131 C   0  0  0  0  0  0  0  0  0  0  0  0
   29.3424   16.6415   22.9388 C   0  0  0  0  0  0  0  0  0  0  0  0
   24.6545   14.7058   25.7664 O   0  0  0  0  0  0  0  0  0  0  0  0
   25.3196   16.8040   25.1821 N   0  0  0  0  0  0  0  0  0  0  0  0
   23.9521   17.2852   25.0002 C   0  0  0  0  0  0  0  0  0  0  0  0
   28.2323    6.1599   31.1904 C   0  0  0  0  0  0  0  0  0  0  0  0
   26.9156    5.4829   31.2573 C   0  0  0  0  0  0  0  0  0  0  0  0
   29.0470    6.0310   32.0950 O   0  0  0  0  0  0  0  0  0  0  0  0
   26.8230    4.0813   31.3600 C   0  0  0  0  0  0  0  0  0  0  0  0
   25.5387    3.5144   31.4610 C   0  0  0  0  0  0  0  0  0  0  0  0
   24.3915    4.3127   31.4563 C   0  0  0  0  0  0  0  0  0  0  0  0
   24.5035    5.6966   31.3528 C   0  0  0  0  0  0  0  0  0  0  0  0
   25.7633    6.2855   31.2550 C   0  0  0  0  0  0  0  0  0  0  0  0
   27.9961    3.1966   31.3397 C   0  0  0  0  0  0  0  0  0  0  0  0
   28.4595    2.5938   32.5180 C   0  0  0  0  0  0  0  0  0  0  0  0
   29.5720    1.7470   32.5015 C   0  0  0  0  0  0  0  0  0  0  0  0
   30.2486    1.4833   31.3026 C   0  0  0  0  0  0  0  0  0  0  0  0
   29.7818    2.0756   30.1196 C   0  0  0  0  0  0  0  0  0  0  0  0
   28.6716    2.9251   30.1405 C   0  0  0  0  0  0  0  0  0  0  0  0
   31.4414    0.5611   31.2699 C   0  0  0  0  0  0  0  0  0  0  0  0
   23.3669   17.0430   23.6065 C   0  0  0  0  0  0  0  0  0  0  0  0
   22.1056   17.5271   23.5283 F   0  0  0  0  0  0  0  0  0  0  0  0
   24.1019   17.6852   22.6664 F   0  0  0  0  0  0  0  0  0  0  0  0
   23.3285   15.7372   23.2735 F   0  0  0  0  0  0  0  0  0  0  0  0
   32.0159    0.3672   32.4904 F   0  0  0  0  0  0  0  0  0  0  0  0
   31.1200   -0.6803   30.8090 F   0  0  0  0  0  0  0  0  0  0  0  0
   32.4388    1.0121   30.4568 F   0  0  0  0  0  0  0  0  0  0  0  0
   30.9195    9.8527   28.3521 H   0  0  0  0  0  0  0  0  0  0  0  0
   30.1615    9.3230   26.8531 H   0  0  0  0  0  0  0  0  0  0  0  0
   29.2656    7.3404   27.7772 H   0  0  0  0  0  0  0  0  0  0  0  0
   30.9576    7.4347   28.2201 H   0  0  0  0  0  0  0  0  0  0  0  0
   30.4464    7.2119   30.3851 H   0  0  0  0  0  0  0  0  0  0  0  0
   30.4638    9.5587   30.6836 H   0  0  0  0  0  0  0  0  0  0  0  0
   29.0689    8.9906   31.5859 H   0  0  0  0  0  0  0  0  0  0  0  0
   28.7142   11.0569   30.1978 H   0  0  0  0  0  0  0  0  0  0  0  0
   27.5266    9.7906   29.9387 H   0  0  0  0  0  0  0  0  0  0  0  0
   27.6656    7.0583   29.4085 H   0  0  0  0  0  0  0  0  0  0  0  0
   27.8129   11.8901   28.1571 H   0  0  0  0  0  0  0  0  0  0  0  0
   29.5701   12.0252   28.1756 H   0  0  0  0  0  0  0  0  0  0  0  0
   29.6516   11.1060   25.8471 H   0  0  0  0  0  0  0  0  0  0  0  0
   27.8971   10.9171   25.8408 H   0  0  0  0  0  0  0  0  0  0  0  0
   28.9374   12.9682   24.6926 H   0  0  0  0  0  0  0  0  0  0  0  0
   29.3377   13.5857   26.2908 H   0  0  0  0  0  0  0  0  0  0  0  0
   26.5396   12.9301   25.2109 H   0  0  0  0  0  0  0  0  0  0  0  0
   26.8269   13.4340   26.8632 H   0  0  0  0  0  0  0  0  0  0  0  0
   30.5066   18.0440   25.4254 H   0  0  0  0  0  0  0  0  0  0  0  0
   30.4405   18.4092   27.8779 H   0  0  0  0  0  0  0  0  0  0  0  0
   28.7909   17.2218   29.2908 H   0  0  0  0  0  0  0  0  0  0  0  0
   27.1700   15.6338   28.2756 H   0  0  0  0  0  0  0  0  0  0  0  0
   26.3962   14.0584   22.7436 H   0  0  0  0  0  0  0  0  0  0  0  0
   27.5782   14.7811   20.6790 H   0  0  0  0  0  0  0  0  0  0  0  0
   29.4382   16.4097   20.7983 H   0  0  0  0  0  0  0  0  0  0  0  0
   30.1566   17.3574   22.9757 H   0  0  0  0  0  0  0  0  0  0  0  0
   26.0762   17.3546   24.7877 H   0  0  0  0  0  0  0  0  0  0  0  0
   23.3086   16.8147   25.7513 H   0  0  0  0  0  0  0  0  0  0  0  0
   23.9707   18.3606   25.2024 H   0  0  0  0  0  0  0  0  0  0  0  0
   25.4288    2.4338   31.5375 H   0  0  0  0  0  0  0  0  0  0  0  0
   23.4100    3.8497   31.5362 H   0  0  0  0  0  0  0  0  0  0  0  0
   23.6103    6.3164   31.3582 H   0  0  0  0  0  0  0  0  0  0  0  0
   25.8465    7.3687   31.2044 H   0  0  0  0  0  0  0  0  0  0  0  0
   27.9619    2.7976   33.4645 H   0  0  0  0  0  0  0  0  0  0  0  0
   29.9138    1.3030   33.4356 H   0  0  0  0  0  0  0  0  0  0  0  0
   30.2874    1.8833   29.1745 H   0  0  0  0  0  0  0  0  0  0  0  0
   28.3339    3.3782   29.2105 H   0  0  0  0  0  0  0  0  0  0  0  0
  1  8  1  0
  8  9  1  0
  9 10  1  0
 10 11  1  0
 11 12  1  0
 12 13  1  0
 12 14  1  0
 14 15  2  0
 15 16  1  0
 16 17  1  0
 17 12  1  0
 16 18  2  0
 18 19  1  0
 19 20  2  0
 20 21  1  0
 21 17  2  0
 14 22  1  0
 22 23  2  0
 23 24  1  0
 24 25  2  0
 25 15  1  0
 13 26  2  0
 13 27  1  0
 27 28  1  0
  7 29  1  0
 29 30  1  0
 29 31  2  0
 30 32  1  0
 32 33  2  0
 33 34  1  0
 34 35  2  0
 35 36  1  0
 36 30  2  0
 32 37  1  0
 37 38  2  0
 38 39  1  0
 39 40  2  0
 40 41  1  0
 41 42  2  0
 42 37  1  0
 40 43  1  0
 28 44  1  0
  1  2  1  0
  2  3  1  0
 44 45  1  0
  3  4  1  0
 44 46  1  0
  4  5  1  0
 44 47  1  0
  5  6  1  0
 43 48  1  0
  6  1  1  0
 43 49  1  0
  4  7  1  0
 43 50  1  0
  2 51  1  0
  2 52  1  0
  3 53  1  0
  3 54  1  0
  4 55  1  0
  5 56  1  0
  5 57  1  0
  6 58  1  0
  6 59  1  0
  7 60  1  0
  8 61  1  0
  8 62  1  0
  9 63  1  0
  9 64  1  0
 10 65  1  0
 10 66  1  0
 11 67  1  0
 11 68  1  0
 18 69  1  0
 19 70  1  0
 20 71  1  0
 21 72  1  0
 22 73  1  0
 23 74  1  0
 24 75  1  0
 25 76  1  0
 27 77  1  0
 28 78  1  0
 28 79  1  0
 33 80  1  0
 34 81  1  0
 35 82  1  0
 36 83  1  0
 38 84  1  0
 39 85  1  0
 41 86  1  0
 42 87  1  0
M  END
> <Uni-Dock RESULT> 
ENERGY=   -4.406  LOWER_BOUND=    5.542  UPPER_BOUND=   12.492
INTER + INTRA:          -4.406
INTER:                  -4.406
INTRA:                   0.000
UNBOUND:                 0.000

$$$$

     RDKit          3D

 87 92  0  0  0  0  0  0  0  0999 V2000
   28.9090   10.3115   27.5581 N   0  0  0  0  0  0  0  0  0  0  0  0
   28.1488   11.4373   28.1049 C   0  0  0  0  0  0  0  0  0  0  0  0
   27.4896   12.2341   26.9779 C   0  0  0  0  0  0  0  0  0  0  0  0
   28.4731   12.6506   25.8779 C   0  0  0  0  0  0  0  0  0  0  0  0
   29.9007   12.2153   26.1994 C   0  0  0  0  0  0  0  0  0  0  0  0
   29.9742   10.7484   26.6336 C   0  0  0  0  0  0  0  0  0  0  0  0
   28.0510   12.1375   24.5783 N   0  0  0  0  0  0  0  0  0  0  0  0
   29.4675    9.4227   28.5944 C   0  0  0  0  0  0  0  0  0  0  0  0
   28.4102    8.7215   29.4624 C   0  0  0  0  0  0  0  0  0  0  0  0
   29.0318    7.7880   30.5113 C   0  0  0  0  0  0  0  0  0  0  0  0
   29.5084    6.4472   29.9258 C   0  0  0  0  0  0  0  0  0  0  0  0
   30.2225    5.4991   30.9268 C   0  0  0  0  0  0  0  0  0  0  0  0
   30.5798    4.1532   30.2360 C   0  0  0  0  0  0  0  0  0  0  0  0
   29.3816    5.2339   32.1851 C   0  0  0  0  0  0  0  0  0  0  0  0
   30.0689    5.6851   33.3344 C   0  0  0  0  0  0  0  0  0  0  0  0
   31.3433    6.2461   32.9365 C   0  0  0  0  0  0  0  0  0  0  0  0
   31.4747    6.1518   31.5328 C   0  0  0  0  0  0  0  0  0  0  0  0
   32.3546    6.8070   33.6977 C   0  0  0  0  0  0  0  0  0  0  0  0
   33.5014    7.2708   33.0455 C   0  0  0  0  0  0  0  0  0  0  0  0
   33.6293    7.1708   31.6507 C   0  0  0  0  0  0  0  0  0  0  0  0
   32.6114    6.6086   30.8802 C   0  0  0  0  0  0  0  0  0  0  0  0
   28.1350    4.6305   32.2782 C   0  0  0  0  0  0  0  0  0  0  0  0
   27.5700    4.4842   33.5456 C   0  0  0  0  0  0  0  0  0  0  0  0
   28.2463    4.9372   34.6903 C   0  0  0  0  0  0  0  0  0  0  0  0
   29.5036    5.5412   34.5902 C   0  0  0  0  0  0  0  0  0  0  0  0
   30.2666    3.8921   29.0750 O   0  0  0  0  0  0  0  0  0  0  0  0
   31.2740    3.2403   31.0106 N   0  0  0  0  0  0  0  0  0  0  0  0
   31.4794    1.8694   30.5487 C   0  0  0  0  0  0  0  0  0  0  0  0
   28.3430   12.8032   23.4053 C   0  0  0  0  0  0  0  0  0  0  0  0
   27.9361   12.0912   22.1708 C   0  0  0  0  0  0  0  0  0  0  0  0
   28.9088   13.8870   23.3430 O   0  0  0  0  0  0  0  0  0  0  0  0
   27.0515   12.6827   21.2482 C   0  0  0  0  0  0  0  0  0  0  0  0
   26.7446   11.9619   20.0789 C   0  0  0  0  0  0  0  0  0  0  0  0
   27.2950   10.6997   19.8399 C   0  0  0  0  0  0  0  0  0  0  0  0
   28.1668   10.1310   20.7645 C   0  0  0  0  0  0  0  0  0  0  0  0
   28.4912   10.8240   21.9299 C   0  0  0  0  0  0  0  0  0  0  0  0
   26.4235   13.9932   21.4666 C   0  0  0  0  0  0  0  0  0  0  0  0
   26.8663   15.1253   20.7675 C   0  0  0  0  0  0  0  0  0  0  0  0
   26.2674   16.3727   20.9685 C   0  0  0  0  0  0  0  0  0  0  0  0
   25.2092   16.5167   21.8764 C   0  0  0  0  0  0  0  0  0  0  0  0
   24.7558   15.3845   22.5698 C   0  0  0  0  0  0  0  0  0  0  0  0
   25.3597   14.1396   22.3693 C   0  0  0  0  0  0  0  0  0  0  0  0
   24.5463   17.8540   22.0917 C   0  0  0  0  0  0  0  0  0  0  0  0
   30.3017    0.9244   30.8005 C   0  0  0  0  0  0  0  0  0  0  0  0
   30.5840   -0.3199   30.3495 F   0  0  0  0  0  0  0  0  0  0  0  0
   30.0521    0.8225   32.1286 F   0  0  0  0  0  0  0  0  0  0  0  0
   29.1649    1.3319   30.2012 F   0  0  0  0  0  0  0  0  0  0  0  0
   25.2993   18.9107   21.6745 F   0  0  0  0  0  0  0  0  0  0  0  0
   23.3622   17.9552   21.4251 F   0  0  0  0  0  0  0  0  0  0  0  0
   24.2567   18.0981   23.4017 F   0  0  0  0  0  0  0  0  0  0  0  0
   28.7880   12.0881   28.7161 H   0  0  0  0  0  0  0  0  0  0  0  0
   27.3377   11.0894   28.7524 H   0  0  0  0  0  0  0  0  0  0  0  0
   26.6585   11.6514   26.5592 H   0  0  0  0  0  0  0  0  0  0  0  0
   27.0353   13.1340   27.4123 H   0  0  0  0  0  0  0  0  0  0  0  0
   28.4633   13.7454   25.8043 H   0  0  0  0  0  0  0  0  0  0  0  0
   30.2881   12.8453   27.0113 H   0  0  0  0  0  0  0  0  0  0  0  0
   30.5649   12.3769   25.3420 H   0  0  0  0  0  0  0  0  0  0  0  0
   30.9710   10.5932   27.0669 H   0  0  0  0  0  0  0  0  0  0  0  0
   29.9222   10.1064   25.7463 H   0  0  0  0  0  0  0  0  0  0  0  0
   27.6636   11.2028   24.5370 H   0  0  0  0  0  0  0  0  0  0  0  0
   30.0605    8.6478   28.0952 H   0  0  0  0  0  0  0  0  0  0  0  0
   30.1557    9.9841   29.2404 H   0  0  0  0  0  0  0  0  0  0  0  0
   27.8291    9.4703   30.0127 H   0  0  0  0  0  0  0  0  0  0  0  0
   27.7059    8.1650   28.8315 H   0  0  0  0  0  0  0  0  0  0  0  0
   28.2678    7.5918   31.2734 H   0  0  0  0  0  0  0  0  0  0  0  0
   29.8528    8.3110   31.0153 H   0  0  0  0  0  0  0  0  0  0  0  0
   28.6340    5.9335   29.5027 H   0  0  0  0  0  0  0  0  0  0  0  0
   30.1813    6.6367   29.0805 H   0  0  0  0  0  0  0  0  0  0  0  0
   32.2688    6.8921   34.7757 H   0  0  0  0  0  0  0  0  0  0  0  0
   34.3061    7.7163   33.6258 H   0  0  0  0  0  0  0  0  0  0  0  0
   34.5324    7.5373   31.1673 H   0  0  0  0  0  0  0  0  0  0  0  0
   32.7150    6.5307   29.8023 H   0  0  0  0  0  0  0  0  0  0  0  0
   27.6102    4.2756   31.3960 H   0  0  0  0  0  0  0  0  0  0  0  0
   26.5937    4.0152   33.6500 H   0  0  0  0  0  0  0  0  0  0  0  0
   27.7847    4.8135   35.6676 H   0  0  0  0  0  0  0  0  0  0  0  0
   30.0159    5.8829   35.4833 H   0  0  0  0  0  0  0  0  0  0  0  0
   31.3591    3.4271   32.0052 H   0  0  0  0  0  0  0  0  0  0  0  0
   31.7083    1.8876   29.4778 H   0  0  0  0  0  0  0  0  0  0  0  0
   32.3632    1.4931   31.0732 H   0  0  0  0  0  0  0  0  0  0  0  0
   26.0609   12.3864   19.3455 H   0  0  0  0  0  0  0  0  0  0  0  0
   27.0421   10.1632   18.9276 H   0  0  0  0  0  0  0  0  0  0  0  0
   28.6007    9.1528   20.5727 H   0  0  0  0  0  0  0  0  0  0  0  0
   29.1957   10.3882   22.6345 H   0  0  0  0  0  0  0  0  0  0  0  0
   27.6985   15.0425   20.0707 H   0  0  0  0  0  0  0  0  0  0  0  0
   26.6417   17.2350   20.4183 H   0  0  0  0  0  0  0  0  0  0  0  0
   23.9324   15.4691   23.2774 H   0  0  0  0  0  0  0  0  0  0  0  0
   24.9945   13.2783   22.9251 H   0  0  0  0  0  0  0  0  0  0  0  0
  1  8  1  0
  8  9  1  0
  9 10  1  0
 10 11  1  0
 11 12  1  0
 12 13  1  0
 12 14  1  0
 14 15  2  0
 15 16  1  0
 16 17  1  0
 17 12  1  0
 16 18  2  0
 18 19  1  0
 19 20  2  0
 20 21  1  0
 21 17  2  0
 14 22  1  0
 22 23  2  0
 23 24  1  0
 24 25  2  0
 25 15  1  0
 13 26  2  0
 13 27  1  0
 27 28  1  0
  7 29  1  0
 29 30  1  0
 29 31  2  0
 30 32  1  0
 32 33  2  0
 33 34  1  0
 34 35  2  0
 35 36  1  0
 36 30  2  0
 32 37  1  0
 37 38  2  0
 38 39  1  0
 39 40  2  0
 40 41  1  0
 41 42  2  0
 42 37  1  0
 40 43  1  0
 28 44  1  0
  1  2  1  0
  2  3  1  0
 44 45  1  0
  3  4  1  0
 44 46  1  0
  4  5  1  0
 44 47  1  0
  5  6  1  0
 43 48  1  0
  6  1  1  0
 43 49  1  0
  4  7  1  0
 43 50  1  0
  2 51  1  0
  2 52  1  0
  3 53  1  0
  3 54  1  0
  4 55  1  0
  5 56  1  0
  5 57  1  0
  6 58  1  0
  6 59  1  0
  7 60  1  0
  8 61  1  0
  8 62  1  0
  9 63  1  0
  9 64  1  0
 10 65  1  0
 10 66  1  0
 11 67  1  0
 11 68  1  0
 18 69  1  0
 19 70  1  0
 20 71  1  0
 21 72  1  0
 22 73  1  0
 23 74  1  0
 24 75  1  0
 25 76  1  0
 27 77  1  0
 28 78  1  0
 28 79  1  0
 33 80  1  0
 34 81  1  0
 35 82  1  0
 36 83  1  0
 38 84  1  0
 39 85  1  0
 41 86  1  0
 42 87  1  0
M  END
> <Uni-Dock RESULT> 
ENERGY=   -4.193  LOWER_BOUND=    5.920  UPPER_BOUND=    8.147
INTER + INTRA:          -4.193
INTER:                  -4.193
INTRA:                   0.000
UNBOUND:                 0.000

$$$$

     RDKit          3D

 87 92  0  0  0  0  0  0  0  0999 V2000
   30.5604    8.2528   29.3512 N   0  0  0  0  0  0  0  0  0  0  0  0
   31.6739    8.9151   30.0336 C   0  0  0  0  0  0  0  0  0  0  0  0
   31.9205   10.3000   29.4331 C   0  0  0  0  0  0  0  0  0  0  0  0
   32.0780   10.2775   27.9082 C   0  0  0  0  0  0  0  0  0  0  0  0
   32.0066    8.8575   27.3520 C   0  0  0  0  0  0  0  0  0  0  0  0
   30.8101    8.0787   27.9063 C   0  0  0  0  0  0  0  0  0  0  0  0
   31.0891   11.1393   27.2682 N   0  0  0  0  0  0  0  0  0  0  0  0
   30.1818    6.9643   29.9611 C   0  0  0  0  0  0  0  0  0  0  0  0
   29.6692    7.0755   31.4061 C   0  0  0  0  0  0  0  0  0  0  0  0
   29.2633    5.7167   31.9950 C   0  0  0  0  0  0  0  0  0  0  0  0
   27.8935    5.2229   31.4972 C   0  0  0  0  0  0  0  0  0  0  0  0
   27.4720    3.8139   31.9950 C   0  0  0  0  0  0  0  0  0  0  0  0
   26.0426    3.4677   31.4913 C   0  0  0  0  0  0  0  0  0  0  0  0
   27.5311    3.6906   33.5253 C   0  0  0  0  0  0  0  0  0  0  0  0
   28.4518    2.6856   33.8979 C   0  0  0  0  0  0  0  0  0  0  0  0
   29.0306    2.1048   32.7041 C   0  0  0  0  0  0  0  0  0  0  0  0
   28.4788    2.7352   31.5663 C   0  0  0  0  0  0  0  0  0  0  0  0
   29.9689    1.0971   32.5596 C   0  0  0  0  0  0  0  0  0  0  0  0
   30.3501    0.7209   31.2679 C   0  0  0  0  0  0  0  0  0  0  0  0
   29.7955    1.3472   30.1400 C   0  0  0  0  0  0  0  0  0  0  0  0
   28.8518    2.3647   30.2817 C   0  0  0  0  0  0  0  0  0  0  0  0
   26.8121    4.4014   34.4765 C   0  0  0  0  0  0  0  0  0  0  0  0
   27.0272    4.0998   35.8218 C   0  0  0  0  0  0  0  0  0  0  0  0
   27.9463    3.1063   36.1973 C   0  0  0  0  0  0  0  0  0  0  0  0
   28.6650    2.3912   35.2340 C   0  0  0  0  0  0  0  0  0  0  0  0
   25.3516    4.2537   30.8441 O   0  0  0  0  0  0  0  0  0  0  0  0
   25.5723    2.2088   31.8217 N   0  0  0  0  0  0  0  0  0  0  0  0
   24.1756    1.8470   31.5915 C   0  0  0  0  0  0  0  0  0  0  0  0
   31.3452   11.7723   26.0690 C   0  0  0  0  0  0  0  0  0  0  0  0
   30.1971   12.5210   25.5057 C   0  0  0  0  0  0  0  0  0  0  0  0
   32.4144   11.7290   25.4743 O   0  0  0  0  0  0  0  0  0  0  0  0
   30.2893   13.9007   25.2383 C   0  0  0  0  0  0  0  0  0  0  0  0
   29.1709   14.5340   24.6646 C   0  0  0  0  0  0  0  0  0  0  0  0
   28.0049   13.8211   24.3721 C   0  0  0  0  0  0  0  0  0  0  0  0
   27.9325   12.4577   24.6448 C   0  0  0  0  0  0  0  0  0  0  0  0
   29.0266   11.8038   25.2097 C   0  0  0  0  0  0  0  0  0  0  0  0
   31.4809   14.7007   25.5541 C   0  0  0  0  0  0  0  0  0  0  0  0
   32.3557   15.1144   24.5394 C   0  0  0  0  0  0  0  0  0  0  0  0
   33.4873   15.8805   24.8355 C   0  0  0  0  0  0  0  0  0  0  0  0
   33.7707   16.2508   26.1573 C   0  0  0  0  0  0  0  0  0  0  0  0
   32.8921   15.8484   27.1743 C   0  0  0  0  0  0  0  0  0  0  0  0
   31.7638   15.0790   26.8750 C   0  0  0  0  0  0  0  0  0  0  0  0
   34.9807   17.0883   26.4875 C   0  0  0  0  0  0  0  0  0  0  0  0
   23.2059    2.3052   32.6837 C   0  0  0  0  0  0  0  0  0  0  0  0
   21.9418    1.9202   32.3913 F   0  0  0  0  0  0  0  0  0  0  0  0
   23.5316    1.7421   33.8726 F   0  0  0  0  0  0  0  0  0  0  0  0
   23.2005    3.6427   32.8530 F   0  0  0  0  0  0  0  0  0  0  0  0
   35.9310   17.0846   25.5106 F   0  0  0  0  0  0  0  0  0  0  0  0
   34.6612   18.3973   26.6903 F   0  0  0  0  0  0  0  0  0  0  0  0
   35.6142   16.6805   27.6241 F   0  0  0  0  0  0  0  0  0  0  0  0
   32.5861    8.3056   29.9878 H   0  0  0  0  0  0  0  0  0  0  0  0
   31.4502    9.0734   31.0934 H   0  0  0  0  0  0  0  0  0  0  0  0
   31.1081   10.9754   29.7324 H   0  0  0  0  0  0  0  0  0  0  0  0
   32.8334   10.7126   29.8819 H   0  0  0  0  0  0  0  0  0  0  0  0
   33.0645   10.6879   27.6583 H   0  0  0  0  0  0  0  0  0  0  0  0
   32.9300    8.3263   27.6190 H   0  0  0  0  0  0  0  0  0  0  0  0
   31.9627    8.8649   26.2563 H   0  0  0  0  0  0  0  0  0  0  0  0
   30.9700    7.0230   27.6505 H   0  0  0  0  0  0  0  0  0  0  0  0
   29.9013    8.3882   27.3766 H   0  0  0  0  0  0  0  0  0  0  0  0
   30.1497   11.1507   27.6463 H   0  0  0  0  0  0  0  0  0  0  0  0
   29.3837    6.5215   29.3544 H   0  0  0  0  0  0  0  0  0  0  0  0
   31.0309    6.2686   29.9280 H   0  0  0  0  0  0  0  0  0  0  0  0
   30.4626    7.4728   32.0494 H   0  0  0  0  0  0  0  0  0  0  0  0
   28.8274    7.7771   31.4598 H   0  0  0  0  0  0  0  0  0  0  0  0
   29.2269    5.8266   33.0856 H   0  0  0  0  0  0  0  0  0  0  0  0
   30.0482    4.9829   31.7781 H   0  0  0  0  0  0  0  0  0  0  0  0
   27.1368    5.9569   31.8072 H   0  0  0  0  0  0  0  0  0  0  0  0
   27.8809    5.2262   30.4004 H   0  0  0  0  0  0  0  0  0  0  0  0
   30.4067    0.6056   33.4219 H   0  0  0  0  0  0  0  0  0  0  0  0
   31.0871   -0.0674   31.1336 H   0  0  0  0  0  0  0  0  0  0  0  0
   30.1074    1.0350   29.1456 H   0  0  0  0  0  0  0  0  0  0  0  0
   28.4234    2.8448   29.4072 H   0  0  0  0  0  0  0  0  0  0  0  0
   26.0978    5.1680   34.1904 H   0  0  0  0  0  0  0  0  0  0  0  0
   26.4783    4.6405   36.5901 H   0  0  0  0  0  0  0  0  0  0  0  0
   28.0980    2.8900   37.2525 H   0  0  0  0  0  0  0  0  0  0  0  0
   29.3688    1.6240   35.5387 H   0  0  0  0  0  0  0  0  0  0  0  0
   26.1019    1.6645   32.4959 H   0  0  0  0  0  0  0  0  0  0  0  0
   23.8579    2.2586   30.6275 H   0  0  0  0  0  0  0  0  0  0  0  0
   24.1449    0.7557   31.5155 H   0  0  0  0  0  0  0  0  0  0  0  0
   29.2050   15.6006   24.4483 H   0  0  0  0  0  0  0  0  0  0  0  0
   27.1542   14.3341   23.9281 H   0  0  0  0  0  0  0  0  0  0  0  0
   27.0278   11.9031   24.4084 H   0  0  0  0  0  0  0  0  0  0  0  0
   28.9753   10.7331   25.3931 H   0  0  0  0  0  0  0  0  0  0  0  0
   32.1670   14.8239   23.5074 H   0  0  0  0  0  0  0  0  0  0  0  0
   34.1533   16.1766   24.0261 H   0  0  0  0  0  0  0  0  0  0  0  0
   33.0877   16.1268   28.2088 H   0  0  0  0  0  0  0  0  0  0  0  0
   31.1021   14.7730   27.6829 H   0  0  0  0  0  0  0  0  0  0  0  0
  1  8  1  0
  8  9  1  0
  9 10  1  0
 10 11  1  0
 11 12  1  0
 12 13  1  0
 12 14  1  0
 14 15  2  0
 15 16  1  0
 16 17  1  0
 17 12  1  0
 16 18  2  0
 18 19  1  0
 19 20  2  0
 20 21  1  0
 21 17  2  0
 14 22  1  0
 22 23  2  0
 23 24  1  0
 24 25  2  0
 25 15  1  0
 13 26  2  0
 13 27  1  0
 27 28  1  0
  7 29  1  0
 29 30  1  0
 29 31  2  0
 30 32  1  0
 32 33  2  0
 33 34  1  0
 34 35  2  0
 35 36  1  0
 36 30  2  0
 32 37  1  0
 37 38  2  0
 38 39  1  0
 39 40  2  0
 40 41  1  0
 41 42  2  0
 42 37  1  0
 40 43  1  0
 28 44  1  0
  1  2  1  0
  2  3  1  0
 44 45  1  0
  3  4  1  0
 44 46  1  0
  4  5  1  0
 44 47  1  0
  5  6  1  0
 43 48  1  0
  6  1  1  0
 43 49  1  0
  4  7  1  0
 43 50  1  0
  2 51  1  0
  2 52  1  0
  3 53  1  0
  3 54  1  0
  4 55  1  0
  5 56  1  0
  5 57  1  0
  6 58  1  0
  6 59  1  0
  7 60  1  0
  8 61  1  0
  8 62  1  0
  9 63  1  0
  9 64  1  0
 10 65  1  0
 10 66  1  0
 11 67  1  0
 11 68  1  0
 18 69  1  0
 19 70  1  0
 20 71  1  0
 21 72  1  0
 22 73  1  0
 23 74  1  0
 24 75  1  0
 25 76  1  0
 27 77  1  0
 28 78  1  0
 28 79  1  0
 33 80  1  0
 34 81  1  0
 35 82  1  0
 36 83  1  0
 38 84  1  0
 39 85  1  0
 41 86  1  0
 42 87  1  0
M  END
> <Uni-Dock RESULT> 
ENERGY=   -3.938  LOWER_BOUND=    4.765  UPPER_BOUND=    6.948
INTER + INTRA:          -3.938
INTER:                  -3.938
INTRA:                   0.000
UNBOUND:                 0.000

$$$$

     RDKit          3D

 87 92  0  0  0  0  0  0  0  0999 V2000
   31.1406   10.0129   28.1626 N   0  0  0  0  0  0  0  0  0  0  0  0
   32.0353    8.8953   27.8549 C   0  0  0  0  0  0  0  0  0  0  0  0
   31.4353    7.5787   28.3511 C   0  0  0  0  0  0  0  0  0  0  0  0
   31.0153    7.6244   29.8250 C   0  0  0  0  0  0  0  0  0  0  0  0
   31.3505    8.9676   30.4685 C   0  0  0  0  0  0  0  0  0  0  0  0
   30.8904   10.1504   29.6113 C   0  0  0  0  0  0  0  0  0  0  0  0
   29.5971    7.3135   29.9737 N   0  0  0  0  0  0  0  0  0  0  0  0
   31.5940   11.2989   27.6001 C   0  0  0  0  0  0  0  0  0  0  0  0
   31.6528   11.3314   26.0644 C   0  0  0  0  0  0  0  0  0  0  0  0
   32.1054   12.6937   25.5193 C   0  0  0  0  0  0  0  0  0  0  0  0
   30.9951   13.7588   25.5462 C   0  0  0  0  0  0  0  0  0  0  0  0
   31.4225   15.1787   25.0855 C   0  0  0  0  0  0  0  0  0  0  0  0
   30.1984   16.1369   25.0808 C   0  0  0  0  0  0  0  0  0  0  0  0
   32.0855   15.1706   23.6995 C   0  0  0  0  0  0  0  0  0  0  0  0
   33.4095   15.6562   23.7900 C   0  0  0  0  0  0  0  0  0  0  0  0
   33.6957   16.0027   25.1667 C   0  0  0  0  0  0  0  0  0  0  0  0
   32.5546   15.7423   25.9583 C   0  0  0  0  0  0  0  0  0  0  0  0
   34.8454   16.5146   25.7437 C   0  0  0  0  0  0  0  0  0  0  0  0
   34.8456   16.7680   27.1189 C   0  0  0  0  0  0  0  0  0  0  0  0
   33.7076   16.5119   27.9006 C   0  0  0  0  0  0  0  0  0  0  0  0
   32.5483   15.9937   27.3233 C   0  0  0  0  0  0  0  0  0  0  0  0
   31.5391   14.7823   22.4840 C   0  0  0  0  0  0  0  0  0  0  0  0
   32.3386   14.8790   21.3445 C   0  0  0  0  0  0  0  0  0  0  0  0
   33.6574   15.3547   21.4305 C   0  0  0  0  0  0  0  0  0  0  0  0
   34.2010   15.7477   22.6576 C   0  0  0  0  0  0  0  0  0  0  0  0
   29.0565   15.7664   25.3506 O   0  0  0  0  0  0  0  0  0  0  0  0
   30.4606   17.4528   24.7419 N   0  0  0  0  0  0  0  0  0  0  0  0
   29.3705   18.3943   24.4966 C   0  0  0  0  0  0  0  0  0  0  0  0
   29.1021    6.7065   31.1099 C   0  0  0  0  0  0  0  0  0  0  0  0
   27.6276    6.5613   31.1430 C   0  0  0  0  0  0  0  0  0  0  0  0
   29.7884    6.3212   32.0477 O   0  0  0  0  0  0  0  0  0  0  0  0
   27.0243    5.2957   31.2757 C   0  0  0  0  0  0  0  0  0  0  0  0
   25.6193    5.2424   31.3413 C   0  0  0  0  0  0  0  0  0  0  0  0
   24.8458    6.4044   31.2739 C   0  0  0  0  0  0  0  0  0  0  0  0
   25.4607    7.6465   31.1416 C   0  0  0  0  0  0  0  0  0  0  0  0
   26.8509    7.7294   31.0777 C   0  0  0  0  0  0  0  0  0  0  0  0
   27.7909    4.0428   31.3212 C   0  0  0  0  0  0  0  0  0  0  0  0
   27.9691    3.3554   32.5303 C   0  0  0  0  0  0  0  0  0  0  0  0
   28.6931    2.1601   32.5764 C   0  0  0  0  0  0  0  0  0  0  0  0
   29.2573    1.6238   31.4107 C   0  0  0  0  0  0  0  0  0  0  0  0
   29.0721    2.3026   30.1970 C   0  0  0  0  0  0  0  0  0  0  0  0
   28.3511    3.4997   30.1554 C   0  0  0  0  0  0  0  0  0  0  0  0
   30.0287    0.3284   31.4455 C   0  0  0  0  0  0  0  0  0  0  0  0
   28.7746   18.3328   23.0880 C   0  0  0  0  0  0  0  0  0  0  0  0
   27.7815   19.2418   22.9502 F   0  0  0  0  0  0  0  0  0  0  0  0
   29.7186   18.6268   22.1613 F   0  0  0  0  0  0  0  0  0  0  0  0
   28.2684   17.1205   22.7851 F   0  0  0  0  0  0  0  0  0  0  0  0
   30.4594   -0.0180   32.6913 F   0  0  0  0  0  0  0  0  0  0  0  0
   29.2864   -0.7250   31.0026 F   0  0  0  0  0  0  0  0  0  0  0  0
   31.1433    0.3532   30.6603 F   0  0  0  0  0  0  0  0  0  0  0  0
   33.0317    9.0539   28.2881 H   0  0  0  0  0  0  0  0  0  0  0  0
   32.1722    8.7844   26.7745 H   0  0  0  0  0  0  0  0  0  0  0  0
   30.5869    7.3023   27.7111 H   0  0  0  0  0  0  0  0  0  0  0  0
   32.1830    6.7866   28.2156 H   0  0  0  0  0  0  0  0  0  0  0  0
   31.5684    6.8451   30.3643 H   0  0  0  0  0  0  0  0  0  0  0  0
   32.4381    9.0318   30.6069 H   0  0  0  0  0  0  0  0  0  0  0  0
   30.9086    9.0468   31.4690 H   0  0  0  0  0  0  0  0  0  0  0  0
   31.3741   11.0477   30.0193 H   0  0  0  0  0  0  0  0  0  0  0  0
   29.8119   10.2956   29.7457 H   0  0  0  0  0  0  0  0  0  0  0  0
   28.9523    7.6848   29.2868 H   0  0  0  0  0  0  0  0  0  0  0  0
   30.8962   12.0785   27.9264 H   0  0  0  0  0  0  0  0  0  0  0  0
   32.5791   11.5616   28.0084 H   0  0  0  0  0  0  0  0  0  0  0  0
   32.3794   10.5926   25.7074 H   0  0  0  0  0  0  0  0  0  0  0  0
   30.6788   11.0590   25.6390 H   0  0  0  0  0  0  0  0  0  0  0  0
   32.4295   12.5438   24.4823 H   0  0  0  0  0  0  0  0  0  0  0  0
   32.9859   13.0295   26.0793 H   0  0  0  0  0  0  0  0  0  0  0  0
   30.1722   13.4049   24.9098 H   0  0  0  0  0  0  0  0  0  0  0  0
   30.5805   13.8282   26.5593 H   0  0  0  0  0  0  0  0  0  0  0  0
   35.7323   16.7158   25.1523 H   0  0  0  0  0  0  0  0  0  0  0  0
   35.7397   17.1685   27.5911 H   0  0  0  0  0  0  0  0  0  0  0  0
   33.7326   16.7195   28.9683 H   0  0  0  0  0  0  0  0  0  0  0  0
   31.6695   15.7994   27.9306 H   0  0  0  0  0  0  0  0  0  0  0  0
   30.5186   14.4173   22.4125 H   0  0  0  0  0  0  0  0  0  0  0  0
   31.9378   14.5817   20.3776 H   0  0  0  0  0  0  0  0  0  0  0  0
   34.2619   15.4196   20.5284 H   0  0  0  0  0  0  0  0  0  0  0  0
   35.2199   16.1168   22.7083 H   0  0  0  0  0  0  0  0  0  0  0  0
   31.3768   17.6735   24.3634 H   0  0  0  0  0  0  0  0  0  0  0  0
   28.5796   18.2195   25.2338 H   0  0  0  0  0  0  0  0  0  0  0  0
   29.7773   19.3948   24.6736 H   0  0  0  0  0  0  0  0  0  0  0  0
   25.1184    4.2805   31.4395 H   0  0  0  0  0  0  0  0  0  0  0  0
   23.7611    6.3361   31.3276 H   0  0  0  0  0  0  0  0  0  0  0  0
   24.8576    8.5501   31.0982 H   0  0  0  0  0  0  0  0  0  0  0  0
   27.3272    8.7044   31.0043 H   0  0  0  0  0  0  0  0  0  0  0  0
   27.5561    3.7614   33.4521 H   0  0  0  0  0  0  0  0  0  0  0  0
   28.8232    1.6560   33.5332 H   0  0  0  0  0  0  0  0  0  0  0  0
   29.4968    1.9044   29.2766 H   0  0  0  0  0  0  0  0  0  0  0  0
   28.2282    4.0108   29.2026 H   0  0  0  0  0  0  0  0  0  0  0  0
  1  8  1  0
  8  9  1  0
  9 10  1  0
 10 11  1  0
 11 12  1  0
 12 13  1  0
 12 14  1  0
 14 15  2  0
 15 16  1  0
 16 17  1  0
 17 12  1  0
 16 18  2  0
 18 19  1  0
 19 20  2  0
 20 21  1  0
 21 17  2  0
 14 22  1  0
 22 23  2  0
 23 24  1  0
 24 25  2  0
 25 15  1  0
 13 26  2  0
 13 27  1  0
 27 28  1  0
  7 29  1  0
 29 30  1  0
 29 31  2  0
 30 32  1  0
 32 33  2  0
 33 34  1  0
 34 35  2  0
 35 36  1  0
 36 30  2  0
 32 37  1  0
 37 38  2  0
 38 39  1  0
 39 40  2  0
 40 41  1  0
 41 42  2  0
 42 37  1  0
 40 43  1  0
 28 44  1  0
  1  2  1  0
  2  3  1  0
 44 45  1  0
  3  4  1  0
 44 46  1  0
  4  5  1  0
 44 47  1  0
  5  6  1  0
 43 48  1  0
  6  1  1  0
 43 49  1  0
  4  7  1  0
 43 50  1  0
  2 51  1  0
  2 52  1  0
  3 53  1  0
  3 54  1  0
  4 55  1  0
  5 56  1  0
  5 57  1  0
  6 58  1  0
  6 59  1  0
  7 60  1  0
  8 61  1  0
  8 62  1  0
  9 63  1  0
  9 64  1  0
 10 65  1  0
 10 66  1  0
 11 67  1  0
 11 68  1  0
 18 69  1  0
 19 70  1  0
 20 71  1  0
 21 72  1  0
 22 73  1  0
 23 74  1  0
 24 75  1  0
 25 76  1  0
 27 77  1  0
 28 78  1  0
 28 79  1  0
 33 80  1  0
 34 81  1  0
 35 82  1  0
 36 83  1  0
 38 84  1  0
 39 85  1  0
 41 86  1  0
 42 87  1  0
M  END
> <Uni-Dock RESULT> 
ENERGY=   -3.877  LOWER_BOUND=    4.546  UPPER_BOUND=   13.738
INTER + INTRA:          -3.877
INTER:                  -3.877
INTRA:                   0.000
UNBOUND:                 0.000

$$$$

     RDKit          3D

 87 92  0  0  0  0  0  0  0  0999 V2000
   32.8769   10.5459   26.8254 N   0  0  0  0  0  0  0  0  0  0  0  0
   33.7565    9.3994   26.5883 C   0  0  0  0  0  0  0  0  0  0  0  0
   33.2422    8.1682   27.3361 C   0  0  0  0  0  0  0  0  0  0  0  0
   32.9839    8.4301   28.8245 C   0  0  0  0  0  0  0  0  0  0  0  0
   33.3583    9.8557   29.2224 C   0  0  0  0  0  0  0  0  0  0  0  0
   32.7827   10.8958   28.2568 C   0  0  0  0  0  0  0  0  0  0  0  0
   31.5972    8.1377   29.1733 N   0  0  0  0  0  0  0  0  0  0  0  0
   33.2389   11.7364   26.0332 C   0  0  0  0  0  0  0  0  0  0  0  0
   33.1298   11.5407   24.5125 C   0  0  0  0  0  0  0  0  0  0  0  0
   33.4914   12.8092   23.7263 C   0  0  0  0  0  0  0  0  0  0  0  0
   32.3681   13.8608   23.7188 C   0  0  0  0  0  0  0  0  0  0  0  0
   32.7125   15.1987   23.0100 C   0  0  0  0  0  0  0  0  0  0  0  0
   31.4750   16.1394   22.9998 C   0  0  0  0  0  0  0  0  0  0  0  0
   33.2211   14.9882   21.5755 C   0  0  0  0  0  0  0  0  0  0  0  0
   34.5363   15.4884   21.4466 C   0  0  0  0  0  0  0  0  0  0  0  0
   34.9629   16.0370   22.7172 C   0  0  0  0  0  0  0  0  0  0  0  0
   33.9204   15.8914   23.6597 C   0  0  0  0  0  0  0  0  0  0  0  0
   36.1573   16.6346   23.0818 C   0  0  0  0  0  0  0  0  0  0  0  0
   36.3016   17.0895   24.3962 C   0  0  0  0  0  0  0  0  0  0  0  0
   35.2610   16.9466   25.3282 C   0  0  0  0  0  0  0  0  0  0  0  0
   34.0571   16.3427   24.9652 C   0  0  0  0  0  0  0  0  0  0  0  0
   32.5542   14.4209   20.4982 C   0  0  0  0  0  0  0  0  0  0  0  0
   33.2229   14.3513   19.2756 C   0  0  0  0  0  0  0  0  0  0  0  0
   34.5328   14.8411   19.1443 C   0  0  0  0  0  0  0  0  0  0  0  0
   35.1980   15.4147   20.2325 C   0  0  0  0  0  0  0  0  0  0  0  0
   30.3773   15.8074   23.4458 O   0  0  0  0  0  0  0  0  0  0  0  0
   31.6707   17.3917   22.4442 N   0  0  0  0  0  0  0  0  0  0  0  0
   30.5406   18.2809   22.1852 C   0  0  0  0  0  0  0  0  0  0  0  0
   31.2417    7.7038   30.4341 C   0  0  0  0  0  0  0  0  0  0  0  0
   29.7829    7.5578   30.6511 C   0  0  0  0  0  0  0  0  0  0  0  0
   32.0338    7.4654   31.3366 O   0  0  0  0  0  0  0  0  0  0  0  0
   29.2247    6.3229   31.0344 C   0  0  0  0  0  0  0  0  0  0  0  0
   27.8367    6.2729   31.2621 C   0  0  0  0  0  0  0  0  0  0  0  0
   27.0358    7.4081   31.1105 C   0  0  0  0  0  0  0  0  0  0  0  0
   27.6060    8.6199   30.7298 C   0  0  0  0  0  0  0  0  0  0  0  0
   28.9789    8.6993   30.5010 C   0  0  0  0  0  0  0  0  0  0  0  0
   30.0183    5.0945   31.1785 C   0  0  0  0  0  0  0  0  0  0  0  0
   30.3414    4.5952   32.4484 C   0  0  0  0  0  0  0  0  0  0  0  0
   31.0915    3.4236   32.5894 C   0  0  0  0  0  0  0  0  0  0  0  0
   31.5371    2.7230   31.4601 C   0  0  0  0  0  0  0  0  0  0  0  0
   31.2066    3.2130   30.1878 C   0  0  0  0  0  0  0  0  0  0  0  0
   30.4599    4.3870   30.0505 C   0  0  0  0  0  0  0  0  0  0  0  0
   32.3351    1.4509   31.5995 C   0  0  0  0  0  0  0  0  0  0  0  0
   29.7965   18.0079   20.8755 C   0  0  0  0  0  0  0  0  0  0  0  0
   28.7752   18.8814   20.7163 F   0  0  0  0  0  0  0  0  0  0  0  0
   30.6279   18.1657   19.8170 F   0  0  0  0  0  0  0  0  0  0  0  0
   29.2864   16.7615   20.8121 F   0  0  0  0  0  0  0  0  0  0  0  0
   32.9059    1.2956   32.8273 F   0  0  0  0  0  0  0  0  0  0  0  0
   31.5717    0.3398   31.4012 F   0  0  0  0  0  0  0  0  0  0  0  0
   33.3570    1.3644   30.7008 F   0  0  0  0  0  0  0  0  0  0  0  0
   34.7904    9.6256   26.8806 H   0  0  0  0  0  0  0  0  0  0  0  0
   33.7776    9.1300   25.5276 H   0  0  0  0  0  0  0  0  0  0  0  0
   32.3353    7.7956   26.8415 H   0  0  0  0  0  0  0  0  0  0  0  0
   33.9874    7.3685   27.2367 H   0  0  0  0  0  0  0  0  0  0  0  0
   33.6089    7.7424   29.4081 H   0  0  0  0  0  0  0  0  0  0  0  0
   34.4529    9.9452   29.2288 H   0  0  0  0  0  0  0  0  0  0  0  0
   33.0261   10.0805   30.2430 H   0  0  0  0  0  0  0  0  0  0  0  0
   33.2886   11.8462   28.4723 H   0  0  0  0  0  0  0  0  0  0  0  0
   31.7223   11.0540   28.4868 H   0  0  0  0  0  0  0  0  0  0  0  0
   30.8738    8.3997   28.5148 H   0  0  0  0  0  0  0  0  0  0  0  0
   32.5642   12.5523   26.3165 H   0  0  0  0  0  0  0  0  0  0  0  0
   34.2567   12.0617   26.2869 H   0  0  0  0  0  0  0  0  0  0  0  0
   33.8289   10.7607   24.1898 H   0  0  0  0  0  0  0  0  0  0  0  0
   32.1214   11.2033   24.2421 H   0  0  0  0  0  0  0  0  0  0  0  0
   33.7040   12.5085   22.6931 H   0  0  0  0  0  0  0  0  0  0  0  0
   34.4201   13.2288   24.1299 H   0  0  0  0  0  0  0  0  0  0  0  0
   31.4886   13.4123   23.2364 H   0  0  0  0  0  0  0  0  0  0  0  0
   32.0646   14.0779   24.7503 H   0  0  0  0  0  0  0  0  0  0  0  0
   36.9702   16.7502   22.3728 H   0  0  0  0  0  0  0  0  0  0  0  0
   37.2330   17.5601   24.7025 H   0  0  0  0  0  0  0  0  0  0  0  0
   35.3973   17.3106   26.3444 H   0  0  0  0  0  0  0  0  0  0  0  0
   33.2539   16.2363   25.6879 H   0  0  0  0  0  0  0  0  0  0  0  0
   31.5400   14.0442   20.5946 H   0  0  0  0  0  0  0  0  0  0  0  0
   32.7258   13.9117   18.4133 H   0  0  0  0  0  0  0  0  0  0  0  0
   35.0342   14.7743   18.1812 H   0  0  0  0  0  0  0  0  0  0  0  0
   36.2082   15.7923   20.1153 H   0  0  0  0  0  0  0  0  0  0  0  0
   32.5354   17.5584   21.9383 H   0  0  0  0  0  0  0  0  0  0  0  0
   29.8383   18.2136   23.0230 H   0  0  0  0  0  0  0  0  0  0  0  0
   30.9427   19.2986   22.1669 H   0  0  0  0  0  0  0  0  0  0  0  0
   27.3700    5.3338   31.5554 H   0  0  0  0  0  0  0  0  0  0  0  0
   25.9650    7.3431   31.2933 H   0  0  0  0  0  0  0  0  0  0  0  0
   26.9826    9.5039   30.6209 H   0  0  0  0  0  0  0  0  0  0  0  0
   29.4235    9.6549   30.2328 H   0  0  0  0  0  0  0  0  0  0  0  0
   30.0225    5.1315   33.3404 H   0  0  0  0  0  0  0  0  0  0  0  0
   31.3355    3.0679   33.5896 H   0  0  0  0  0  0  0  0  0  0  0  0
   31.5372    2.6846   29.2947 H   0  0  0  0  0  0  0  0  0  0  0  0
   30.2234    4.7504   29.0525 H   0  0  0  0  0  0  0  0  0  0  0  0
  1  8  1  0
  8  9  1  0
  9 10  1  0
 10 11  1  0
 11 12  1  0
 12 13  1  0
 12 14  1  0
 14 15  2  0
 15 16  1  0
 16 17  1  0
 17 12  1  0
 16 18  2  0
 18 19  1  0
 19 20  2  0
 20 21  1  0
 21 17  2  0
 14 22  1  0
 22 23  2  0
 23 24  1  0
 24 25  2  0
 25 15  1  0
 13 26  2  0
 13 27  1  0
 27 28  1  0
  7 29  1  0
 29 30  1  0
 29 31  2  0
 30 32  1  0
 32 33  2  0
 33 34  1  0
 34 35  2  0
 35 36  1  0
 36 30  2  0
 32 37  1  0
 37 38  2  0
 38 39  1  0
 39 40  2  0
 40 41  1  0
 41 42  2  0
 42 37  1  0
 40 43  1  0
 28 44  1  0
  1  2  1  0
  2  3  1  0
 44 45  1  0
  3  4  1  0
 44 46  1  0
  4  5  1  0
 44 47  1  0
  5  6  1  0
 43 48  1  0
  6  1  1  0
 43 49  1  0
  4  7  1  0
 43 50  1  0
  2 51  1  0
  2 52  1  0
  3 53  1  0
  3 54  1  0
  4 55  1  0
  5 56  1  0
  5 57  1  0
  6 58  1  0
  6 59  1  0
  7 60  1  0
  8 61  1  0
  8 62  1  0
  9 63  1  0
  9 64  1  0
 10 65  1  0
 10 66  1  0
 11 67  1  0
 11 68  1  0
 18 69  1  0
 19 70  1  0
 20 71  1  0
 21 72  1  0
 22 73  1  0
 23 74  1  0
 24 75  1  0
 25 76  1  0
 27 77  1  0
 28 78  1  0
 28 79  1  0
 33 80  1  0
 34 81  1  0
 35 82  1  0
 36 83  1  0
 38 84  1  0
 39 85  1  0
 41 86  1  0
 42 87  1  0
M  END
> <Uni-Dock RESULT> 
ENERGY=   -3.764  LOWER_BOUND=    5.027  UPPER_BOUND=   14.265
INTER + INTRA:          -3.764
INTER:                  -3.764
INTRA:                   0.000
UNBOUND:                 0.000

$$$$

     RDKit          3D

 87 92  0  0  0  0  0  0  0  0999 V2000
   31.8964    9.1204   28.7665 N   0  0  0  0  0  0  0  0  0  0  0  0
   33.3518    9.0525   28.9130 C   0  0  0  0  0  0  0  0  0  0  0  0
   33.7794    7.6516   29.3535 C   0  0  0  0  0  0  0  0  0  0  0  0
   33.0265    7.1523   30.5924 C   0  0  0  0  0  0  0  0  0  0  0  0
   32.0599    8.2044   31.1304 C   0  0  0  0  0  0  0  0  0  0  0  0
   31.1895    8.8093   30.0250 C   0  0  0  0  0  0  0  0  0  0  0  0
   32.3317    5.8998   30.3117 N   0  0  0  0  0  0  0  0  0  0  0  0
   31.4215   10.4057   28.2203 C   0  0  0  0  0  0  0  0  0  0  0  0
   31.9149   10.7081   26.7962 C   0  0  0  0  0  0  0  0  0  0  0  0
   31.3788   12.0419   26.2562 C   0  0  0  0  0  0  0  0  0  0  0  0
   29.9166   11.9628   25.7833 C   0  0  0  0  0  0  0  0  0  0  0  0
   29.2969   13.3044   25.3067 C   0  0  0  0  0  0  0  0  0  0  0  0
   27.8519   13.0761   24.7812 C   0  0  0  0  0  0  0  0  0  0  0  0
   30.1447   13.9901   24.2243 C   0  0  0  0  0  0  0  0  0  0  0  0
   30.5802   15.2563   24.6759 C   0  0  0  0  0  0  0  0  0  0  0  0
   30.0749   15.4833   26.0140 C   0  0  0  0  0  0  0  0  0  0  0  0
   29.3130   14.3644   26.4190 C   0  0  0  0  0  0  0  0  0  0  0  0
   30.2317   16.5668   26.8615 C   0  0  0  0  0  0  0  0  0  0  0  0
   29.6181   16.5256   28.1173 C   0  0  0  0  0  0  0  0  0  0  0  0
   28.8582   15.4133   28.5137 C   0  0  0  0  0  0  0  0  0  0  0  0
   28.7000   14.3187   27.6635 C   0  0  0  0  0  0  0  0  0  0  0  0
   30.4697   13.5228   22.9582 C   0  0  0  0  0  0  0  0  0  0  0  0
   31.2485   14.3393   22.1375 C   0  0  0  0  0  0  0  0  0  0  0  0
   31.6894   15.5958   22.5845 C   0  0  0  0  0  0  0  0  0  0  0  0
   31.3557   16.0625   23.8599 C   0  0  0  0  0  0  0  0  0  0  0  0
   27.3325   11.9628   24.7113 O   0  0  0  0  0  0  0  0  0  0  0  0
   27.1676   14.2096   24.3786 N   0  0  0  0  0  0  0  0  0  0  0  0
   25.8924   14.1035   23.6732 C   0  0  0  0  0  0  0  0  0  0  0  0
   32.1104    4.9563   31.2942 C   0  0  0  0  0  0  0  0  0  0  0  0
   31.2974    3.7938   30.8654 C   0  0  0  0  0  0  0  0  0  0  0  0
   32.5180    5.0423   32.4454 O   0  0  0  0  0  0  0  0  0  0  0  0
   31.7999    2.4813   30.9576 C   0  0  0  0  0  0  0  0  0  0  0  0
   30.9531    1.4260   30.5701 C   0  0  0  0  0  0  0  0  0  0  0  0
   29.6575    1.6692   30.1056 C   0  0  0  0  0  0  0  0  0  0  0  0
   29.1791    2.9739   30.0206 C   0  0  0  0  0  0  0  0  0  0  0  0
   29.9949    4.0385   30.4011 C   0  0  0  0  0  0  0  0  0  0  0  0
   33.1637    2.1749   31.4110 C   0  0  0  0  0  0  0  0  0  0  0  0
   33.3921    1.6491   32.6907 C   0  0  0  0  0  0  0  0  0  0  0  0
   34.6879    1.3510   33.1234 C   0  0  0  0  0  0  0  0  0  0  0  0
   35.7879    1.5732   32.2837 C   0  0  0  0  0  0  0  0  0  0  0  0
   35.5629    2.0889   30.9985 C   0  0  0  0  0  0  0  0  0  0  0  0
   34.2663    2.3896   30.5707 C   0  0  0  0  0  0  0  0  0  0  0  0
   37.1888    1.2431   32.7340 C   0  0  0  0  0  0  0  0  0  0  0  0
   26.0110   13.8522   22.1679 C   0  0  0  0  0  0  0  0  0  0  0  0
   24.7853   13.7771   21.5990 F   0  0  0  0  0  0  0  0  0  0  0  0
   26.6695   14.8734   21.5679 F   0  0  0  0  0  0  0  0  0  0  0  0
   26.6710   12.7133   21.8766 F   0  0  0  0  0  0  0  0  0  0  0  0
   37.3145    1.1241   34.0859 F   0  0  0  0  0  0  0  0  0  0  0  0
   37.6324    0.0641   32.2144 F   0  0  0  0  0  0  0  0  0  0  0  0
   38.1028    2.1821   32.3568 F   0  0  0  0  0  0  0  0  0  0  0  0
   33.7149    9.8085   29.6218 H   0  0  0  0  0  0  0  0  0  0  0  0
   33.8545    9.2432   27.9595 H   0  0  0  0  0  0  0  0  0  0  0  0
   33.6573    6.9540   28.5143 H   0  0  0  0  0  0  0  0  0  0  0  0
   34.8549    7.6722   29.5716 H   0  0  0  0  0  0  0  0  0  0  0  0
   33.7618    6.9372   31.3780 H   0  0  0  0  0  0  0  0  0  0  0  0
   32.6396    9.0075   31.6048 H   0  0  0  0  0  0  0  0  0  0  0  0
   31.4174    7.7856   31.9142 H   0  0  0  0  0  0  0  0  0  0  0  0
   30.7106    9.7021   30.4482 H   0  0  0  0  0  0  0  0  0  0  0  0
   30.3785    8.1125   29.7821 H   0  0  0  0  0  0  0  0  0  0  0  0
   31.8813    5.7952   29.4108 H   0  0  0  0  0  0  0  0  0  0  0  0
   30.3259   10.3827   28.1987 H   0  0  0  0  0  0  0  0  0  0  0  0
   31.7101   11.2280   28.8885 H   0  0  0  0  0  0  0  0  0  0  0  0
   33.0082   10.7841   26.7930 H   0  0  0  0  0  0  0  0  0  0  0  0
   31.6455    9.8898   26.1167 H   0  0  0  0  0  0  0  0  0  0  0  0
   32.0113   12.3338   25.4090 H   0  0  0  0  0  0  0  0  0  0  0  0
   31.5027   12.8151   27.0232 H   0  0  0  0  0  0  0  0  0  0  0  0
   29.8651   11.2305   24.9658 H   0  0  0  0  0  0  0  0  0  0  0  0
   29.2940   11.5550   26.5891 H   0  0  0  0  0  0  0  0  0  0  0  0
   30.8172   17.4319   26.5691 H   0  0  0  0  0  0  0  0  0  0  0  0
   29.7311   17.3661   28.7981 H   0  0  0  0  0  0  0  0  0  0  0  0
   28.3892   15.4064   29.4954 H   0  0  0  0  0  0  0  0  0  0  0  0
   28.1095   13.4616   27.9725 H   0  0  0  0  0  0  0  0  0  0  0  0
   30.1279   12.5534   22.6073 H   0  0  0  0  0  0  0  0  0  0  0  0
   31.5195   13.9997   21.1399 H   0  0  0  0  0  0  0  0  0  0  0  0
   32.2970   16.2138   21.9270 H   0  0  0  0  0  0  0  0  0  0  0  0
   31.7001   17.0366   24.1903 H   0  0  0  0  0  0  0  0  0  0  0  0
   27.6904   15.0760   24.2927 H   0  0  0  0  0  0  0  0  0  0  0  0
   25.3012   13.3025   24.1299 H   0  0  0  0  0  0  0  0  0  0  0  0
   25.3638   15.0469   23.8416 H   0  0  0  0  0  0  0  0  0  0  0  0
   31.3097    0.3986   30.6239 H   0  0  0  0  0  0  0  0  0  0  0  0
   29.0224    0.8356   29.8127 H   0  0  0  0  0  0  0  0  0  0  0  0
   28.1679    3.1605   29.6673 H   0  0  0  0  0  0  0  0  0  0  0  0
   29.6059    5.0533   30.3609 H   0  0  0  0  0  0  0  0  0  0  0  0
   32.5557    1.4849   33.3679 H   0  0  0  0  0  0  0  0  0  0  0  0
   34.8330    0.9541   34.1273 H   0  0  0  0  0  0  0  0  0  0  0  0
   36.4004    2.2665   30.3254 H   0  0  0  0  0  0  0  0  0  0  0  0
   34.1191    2.7959   29.5720 H   0  0  0  0  0  0  0  0  0  0  0  0
  1  8  1  0
  8  9  1  0
  9 10  1  0
 10 11  1  0
 11 12  1  0
 12 13  1  0
 12 14  1  0
 14 15  2  0
 15 16  1  0
 16 17  1  0
 17 12  1  0
 16 18  2  0
 18 19  1  0
 19 20  2  0
 20 21  1  0
 21 17  2  0
 14 22  1  0
 22 23  2  0
 23 24  1  0
 24 25  2  0
 25 15  1  0
 13 26  2  0
 13 27  1  0
 27 28  1  0
  7 29  1  0
 29 30  1  0
 29 31  2  0
 30 32  1  0
 32 33  2  0
 33 34  1  0
 34 35  2  0
 35 36  1  0
 36 30  2  0
 32 37  1  0
 37 38  2  0
 38 39  1  0
 39 40  2  0
 40 41  1  0
 41 42  2  0
 42 37  1  0
 40 43  1  0
 28 44  1  0
  1  2  1  0
  2  3  1  0
 44 45  1  0
  3  4  1  0
 44 46  1  0
  4  5  1  0
 44 47  1  0
  5  6  1  0
 43 48  1  0
  6  1  1  0
 43 49  1  0
  4  7  1  0
 43 50  1  0
  2 51  1  0
  2 52  1  0
  3 53  1  0
  3 54  1  0
  4 55  1  0
  5 56  1  0
  5 57  1  0
  6 58  1  0
  6 59  1  0
  7 60  1  0
  8 61  1  0
  8 62  1  0
  9 63  1  0
  9 64  1  0
 10 65  1  0
 10 66  1  0
 11 67  1  0
 11 68  1  0
 18 69  1  0
 19 70  1  0
 20 71  1  0
 21 72  1  0
 22 73  1  0
 23 74  1  0
 24 75  1  0
 25 76  1  0
 27 77  1  0
 28 78  1  0
 28 79  1  0
 33 80  1  0
 34 81  1  0
 35 82  1  0
 36 83  1  0
 38 84  1  0
 39 85  1  0
 41 86  1  0
 42 87  1  0
M  END
> <Uni-Dock RESULT> 
ENERGY=   -3.756  LOWER_BOUND=    6.937  UPPER_BOUND=   12.625
INTER + INTRA:          -3.756
INTER:                  -3.756
INTRA:                   0.000
UNBOUND:                 0.000

$$$$
