
     RDKit          3D

 87 92  0  0  0  0  0  0  0  0999 V2000
   28.7714   11.2265   28.8424 N   0  0  0  0  0  0  0  0  0  0  0  0
   29.9973   10.5838   28.3339 C   0  0  0  0  0  0  0  0  0  0  0  0
   31.2388   11.3918   28.7031 C   0  0  0  0  0  0  0  0  0  0  0  0
   31.3299   11.6121   30.2131 C   0  0  0  0  0  0  0  0  0  0  0  0
   30.0200   12.1834   30.7478 C   0  0  0  0  0  0  0  0  0  0  0  0
   28.8305   11.3300   30.3109 C   0  0  0  0  0  0  0  0  0  0  0  0
   32.4373   12.5035   30.5319 N   0  0  0  0  0  0  0  0  0  0  0  0
   27.5908   10.4547   28.4038 C   0  0  0  0  0  0  0  0  0  0  0  0
   26.2757   11.2223   28.6113 C   0  0  0  0  0  0  0  0  0  0  0  0
   25.0658   10.5057   28.0075 C   0  0  0  0  0  0  0  0  0  0  0  0
   24.6051    9.2124   28.6985 C   0  0  0  0  0  0  0  0  0  0  0  0
   23.9910    9.2878   30.1283 C   0  0  0  0  0  0  0  0  0  0  0  0
   25.0498    9.3997   31.2577 C   0  0  0  0  0  0  0  0  0  0  0  0
   23.2032    7.9692   30.3432 C   0  0  0  0  0  0  0  0  0  0  0  0
   21.8281    8.2354   30.5035 C   0  0  0  0  0  0  0  0  0  0  0  0
   21.6146    9.6645   30.4611 C   0  0  0  0  0  0  0  0  0  0  0  0
   22.8534   10.3175   30.2673 C   0  0  0  0  0  0  0  0  0  0  0  0
   20.4464   10.3937   30.6227 C   0  0  0  0  0  0  0  0  0  0  0  0
   20.5217   11.7887   30.6077 C   0  0  0  0  0  0  0  0  0  0  0  0
   21.7545   12.4382   30.4431 C   0  0  0  0  0  0  0  0  0  0  0  0
   22.9315   11.7051   30.2799 C   0  0  0  0  0  0  0  0  0  0  0  0
   23.6964    6.6704   30.3769 C   0  0  0  0  0  0  0  0  0  0  0  0
   22.7894    5.6265   30.5667 C   0  0  0  0  0  0  0  0  0  0  0  0
   21.4184    5.8867   30.7201 C   0  0  0  0  0  0  0  0  0  0  0  0
   20.9298    7.1969   30.6909 C   0  0  0  0  0  0  0  0  0  0  0  0
   26.2526    9.2207   31.0754 O   0  0  0  0  0  0  0  0  0  0  0  0
   24.5583    9.6556   32.5268 N   0  0  0  0  0  0  0  0  0  0  0  0
   25.4346    9.5639   33.6940 C   0  0  0  0  0  0  0  0  0  0  0  0
   33.7028   12.0326   30.7974 C   0  0  0  0  0  0  0  0  0  0  0  0
   34.7358   13.0859   30.8788 C   0  0  0  0  0  0  0  0  0  0  0  0
   34.0063   10.8618   30.9748 O   0  0  0  0  0  0  0  0  0  0  0  0
   35.2369   13.7131   29.7194 C   0  0  0  0  0  0  0  0  0  0  0  0
   36.1841   14.7373   29.8960 C   0  0  0  0  0  0  0  0  0  0  0  0
   36.6158   15.1125   31.1730 C   0  0  0  0  0  0  0  0  0  0  0  0
   36.1142   14.4679   32.3026 C   0  0  0  0  0  0  0  0  0  0  0  0
   35.1753   13.4495   32.1585 C   0  0  0  0  0  0  0  0  0  0  0  0
   34.8281   13.3209   28.3602 C   0  0  0  0  0  0  0  0  0  0  0  0
   35.0866   12.0289   27.8763 C   0  0  0  0  0  0  0  0  0  0  0  0
   34.6883   11.6451   26.5919 C   0  0  0  0  0  0  0  0  0  0  0  0
   34.0231   12.5491   25.7544 C   0  0  0  0  0  0  0  0  0  0  0  0
   33.7673   13.8443   26.2287 C   0  0  0  0  0  0  0  0  0  0  0  0
   34.1680   14.2246   27.5141 C   0  0  0  0  0  0  0  0  0  0  0  0
   33.5658   12.1460   24.3742 C   0  0  0  0  0  0  0  0  0  0  0  0
   25.6688    8.1447   34.2214 C   0  0  0  0  0  0  0  0  0  0  0  0
   26.4639    8.1720   35.3162 F   0  0  0  0  0  0  0  0  0  0  0  0
   26.2474    7.3339   33.3134 F   0  0  0  0  0  0  0  0  0  0  0  0
   24.4952    7.5787   34.5931 F   0  0  0  0  0  0  0  0  0  0  0  0
   32.2082   12.1114   24.2668 F   0  0  0  0  0  0  0  0  0  0  0  0
   33.9948   13.0084   23.4096 F   0  0  0  0  0  0  0  0  0  0  0  0
   34.0023   10.9132   23.9908 F   0  0  0  0  0  0  0  0  0  0  0  0
   30.0932    9.5604   28.7195 H   0  0  0  0  0  0  0  0  0  0  0  0
   29.9556   10.5163   27.2397 H   0  0  0  0  0  0  0  0  0  0  0  0
   31.2138   12.3599   28.1845 H   0  0  0  0  0  0  0  0  0  0  0  0
   32.1337   10.8707   28.3440 H   0  0  0  0  0  0  0  0  0  0  0  0
   31.5165   10.6452   30.6975 H   0  0  0  0  0  0  0  0  0  0  0  0
   29.8831   13.2137   30.3946 H   0  0  0  0  0  0  0  0  0  0  0  0
   30.0554   12.2345   31.8425 H   0  0  0  0  0  0  0  0  0  0  0  0
   27.9295   11.8120   30.7022 H   0  0  0  0  0  0  0  0  0  0  0  0
   28.8966   10.3367   30.7730 H   0  0  0  0  0  0  0  0  0  0  0  0
   32.3403   13.4795   30.2802 H   0  0  0  0  0  0  0  0  0  0  0  0
   27.5628    9.4764   28.8957 H   0  0  0  0  0  0  0  0  0  0  0  0
   27.6807   10.2591   27.3273 H   0  0  0  0  0  0  0  0  0  0  0  0
   26.0915   11.4324   29.6671 H   0  0  0  0  0  0  0  0  0  0  0  0
   26.3653   12.1989   28.1170 H   0  0  0  0  0  0  0  0  0  0  0  0
   24.2283   11.2084   27.9446 H   0  0  0  0  0  0  0  0  0  0  0  0
   25.3032   10.2583   26.9635 H   0  0  0  0  0  0  0  0  0  0  0  0
   25.4359    8.4950   28.6911 H   0  0  0  0  0  0  0  0  0  0  0  0
   23.8514    8.7791   28.0229 H   0  0  0  0  0  0  0  0  0  0  0  0
   19.4902    9.9017   30.7679 H   0  0  0  0  0  0  0  0  0  0  0  0
   19.6168   12.3792   30.7341 H   0  0  0  0  0  0  0  0  0  0  0  0
   21.7930   13.5256   30.4459 H   0  0  0  0  0  0  0  0  0  0  0  0
   23.8789   12.2232   30.1719 H   0  0  0  0  0  0  0  0  0  0  0  0
   24.7565    6.4637   30.2591 H   0  0  0  0  0  0  0  0  0  0  0  0
   23.1477    4.5994   30.5939 H   0  0  0  0  0  0  0  0  0  0  0  0
   20.7285    5.0568   30.8651 H   0  0  0  0  0  0  0  0  0  0  0  0
   19.8682    7.3840   30.8138 H   0  0  0  0  0  0  0  0  0  0  0  0
   23.5579    9.5554   32.6722 H   0  0  0  0  0  0  0  0  0  0  0  0
   26.3983   10.0233   33.4476 H   0  0  0  0  0  0  0  0  0  0  0  0
   24.9686   10.1683   34.4793 H   0  0  0  0  0  0  0  0  0  0  0  0
   36.6087   15.2404   29.0287 H   0  0  0  0  0  0  0  0  0  0  0  0
   37.3534   15.9039   31.2827 H   0  0  0  0  0  0  0  0  0  0  0  0
   36.4568   14.7577   33.2927 H   0  0  0  0  0  0  0  0  0  0  0  0
   34.7811   12.9416   33.0366 H   0  0  0  0  0  0  0  0  0  0  0  0
   35.5940   11.2995   28.5076 H   0  0  0  0  0  0  0  0  0  0  0  0
   34.8959   10.6301   26.2561 H   0  0  0  0  0  0  0  0  0  0  0  0
   33.2487   14.5641   25.5966 H   0  0  0  0  0  0  0  0  0  0  0  0
   33.9493   15.2349   27.8558 H   0  0  0  0  0  0  0  0  0  0  0  0
  1  8  1  0
  8  9  1  0
  9 10  1  0
 10 11  1  0
 11 12  1  0
 12 13  1  0
 12 14  1  0
 14 15  2  0
 15 16  1  0
 16 17  1  0
 17 12  1  0
 16 18  2  0
 18 19  1  0
 19 20  2  0
 20 21  1  0
 21 17  2  0
 14 22  1  0
 22 23  2  0
 23 24  1  0
 24 25  2  0
 25 15  1  0
 13 26  2  0
 13 27  1  0
 27 28  1  0
  7 29  1  0
 29 30  1  0
 29 31  2  0
 30 32  1  0
 32 33  2  0
 33 34  1  0
 34 35  2  0
 35 36  1  0
 36 30  2  0
 32 37  1  0
 37 38  2  0
 38 39  1  0
 39 40  2  0
 40 41  1  0
 41 42  2  0
 42 37  1  0
 40 43  1  0
 28 44  1  0
  1  2  1  0
  2  3  1  0
 44 45  1  0
  3  4  1  0
 44 46  1  0
  4  5  1  0
 44 47  1  0
  5  6  1  0
 43 48  1  0
  6  1  1  0
 43 49  1  0
  4  7  1  0
 43 50  1  0
  2 51  1  0
  2 52  1  0
  3 53  1  0
  3 54  1  0
  4 55  1  0
  5 56  1  0
  5 57  1  0
  6 58  1  0
  6 59  1  0
  7 60  1  0
  8 61  1  0
  8 62  1  0
  9 63  1  0
  9 64  1  0
 10 65  1  0
 10 66  1  0
 11 67  1  0
 11 68  1  0
 18 69  1  0
 19 70  1  0
 20 71  1  0
 21 72  1  0
 22 73  1  0
 23 74  1  0
 24 75  1  0
 25 76  1  0
 27 77  1  0
 28 78  1  0
 28 79  1  0
 33 80  1  0
 34 81  1  0
 35 82  1  0
 36 83  1  0
 38 84  1  0
 39 85  1  0
 41 86  1  0
 42 87  1  0
M  END
> <Uni-Dock RESULT> 
ENERGY=   -5.092  LOWER_BOUND=    0.000  UPPER_BOUND=    0.000
INTER + INTRA:          -5.092
INTER:                  -5.092
INTRA:                   0.000
UNBOUND:                 0.000

$$$$

     RDKit          3D

 87 92  0  0  0  0  0  0  0  0999 V2000
   28.9508    9.1959   28.1513 N   0  0  0  0  0  0  0  0  0  0  0  0
   28.8532    8.9794   29.6066 C   0  0  0  0  0  0  0  0  0  0  0  0
   29.0101    7.5020   29.9575 C   0  0  0  0  0  0  0  0  0  0  0  0
   30.3227    6.9379   29.4135 C   0  0  0  0  0  0  0  0  0  0  0  0
   30.4631    7.2547   27.9275 C   0  0  0  0  0  0  0  0  0  0  0  0
   30.2665    8.7466   27.6637 C   0  0  0  0  0  0  0  0  0  0  0  0
   30.3879    5.4989   29.6315 N   0  0  0  0  0  0  0  0  0  0  0  0
   28.7225   10.6233   27.8480 C   0  0  0  0  0  0  0  0  0  0  0  0
   28.4869   10.8763   26.3505 C   0  0  0  0  0  0  0  0  0  0  0  0
   28.0827   12.3206   26.0466 C   0  0  0  0  0  0  0  0  0  0  0  0
   29.1642   13.3987   26.2210 C   0  0  0  0  0  0  0  0  0  0  0  0
   30.3868   13.4169   25.2555 C   0  0  0  0  0  0  0  0  0  0  0  0
   31.4892   12.3884   25.6244 C   0  0  0  0  0  0  0  0  0  0  0  0
   31.0074   14.8350   25.3517 C   0  0  0  0  0  0  0  0  0  0  0  0
   30.9136   15.5007   24.1125 C   0  0  0  0  0  0  0  0  0  0  0  0
   30.3077   14.6149   23.1441 C   0  0  0  0  0  0  0  0  0  0  0  0
   30.0062   13.3802   23.7631 C   0  0  0  0  0  0  0  0  0  0  0  0
   30.0594   14.8105   21.7940 C   0  0  0  0  0  0  0  0  0  0  0  0
   29.5211   13.7551   21.0536 C   0  0  0  0  0  0  0  0  0  0  0  0
   29.2471   12.5201   21.6607 C   0  0  0  0  0  0  0  0  0  0  0  0
   29.4963   12.3220   23.0201 C   0  0  0  0  0  0  0  0  0  0  0  0
   31.5839   15.4464   26.4585 C   0  0  0  0  0  0  0  0  0  0  0  0
   32.0646   16.7490   26.3152 C   0  0  0  0  0  0  0  0  0  0  0  0
   31.9671   17.4180   25.0848 C   0  0  0  0  0  0  0  0  0  0  0  0
   31.3908   16.7944   23.9734 C   0  0  0  0  0  0  0  0  0  0  0  0
   31.5120   11.7766   26.6908 O   0  0  0  0  0  0  0  0  0  0  0  0
   32.5078   12.2328   24.6990 N   0  0  0  0  0  0  0  0  0  0  0  0
   33.7040   11.4618   25.0354 C   0  0  0  0  0  0  0  0  0  0  0  0
   30.9399    4.9553   30.7689 C   0  0  0  0  0  0  0  0  0  0  0  0
   30.7176    3.5018   30.9143 C   0  0  0  0  0  0  0  0  0  0  0  0
   31.5804    5.5647   31.6132 O   0  0  0  0  0  0  0  0  0  0  0  0
   29.4639    2.9868   31.3040 C   0  0  0  0  0  0  0  0  0  0  0  0
   29.3316    1.5885   31.3709 C   0  0  0  0  0  0  0  0  0  0  0  0
   30.4055    0.7438   31.0691 C   0  0  0  0  0  0  0  0  0  0  0  0
   31.6384    1.2786   30.6988 C   0  0  0  0  0  0  0  0  0  0  0  0
   31.7993    2.6599   30.6241 C   0  0  0  0  0  0  0  0  0  0  0  0
   28.3233    3.8476   31.6592 C   0  0  0  0  0  0  0  0  0  0  0  0
   28.3979    4.7253   32.7521 C   0  0  0  0  0  0  0  0  0  0  0  0
   27.3239    5.5561   33.0864 C   0  0  0  0  0  0  0  0  0  0  0  0
   26.1420    5.5263   32.3358 C   0  0  0  0  0  0  0  0  0  0  0  0
   26.0577    4.6467   31.2462 C   0  0  0  0  0  0  0  0  0  0  0  0
   27.1342    3.8167   30.9154 C   0  0  0  0  0  0  0  0  0  0  0  0
   24.9812    6.4313   32.6677 C   0  0  0  0  0  0  0  0  0  0  0  0
   34.7538   12.2161   25.8577 C   0  0  0  0  0  0  0  0  0  0  0  0
   35.8300   11.4284   26.0879 F   0  0  0  0  0  0  0  0  0  0  0  0
   34.2876   12.6340   27.0513 F   0  0  0  0  0  0  0  0  0  0  0  0
   35.1922   13.3047   25.1806 F   0  0  0  0  0  0  0  0  0  0  0  0
   24.7580    7.3646   31.7007 F   0  0  0  0  0  0  0  0  0  0  0  0
   23.8096    5.7484   32.8050 F   0  0  0  0  0  0  0  0  0  0  0  0
   25.1437    7.1273   33.8280 F   0  0  0  0  0  0  0  0  0  0  0  0
   29.6077    9.5696   30.1431 H   0  0  0  0  0  0  0  0  0  0  0  0
   27.8695    9.3057   29.9663 H   0  0  0  0  0  0  0  0  0  0  0  0
   28.1618    6.9360   29.5490 H   0  0  0  0  0  0  0  0  0  0  0  0
   28.9698    7.3788   31.0458 H   0  0  0  0  0  0  0  0  0  0  0  0
   31.1555    7.4056   29.9537 H   0  0  0  0  0  0  0  0  0  0  0  0
   29.7316    6.6788   27.3458 H   0  0  0  0  0  0  0  0  0  0  0  0
   31.4529    6.9443   27.5724 H   0  0  0  0  0  0  0  0  0  0  0  0
   30.3507    8.8947   26.5829 H   0  0  0  0  0  0  0  0  0  0  0  0
   31.0768    9.3169   28.1358 H   0  0  0  0  0  0  0  0  0  0  0  0
   29.7744    4.9131   29.0785 H   0  0  0  0  0  0  0  0  0  0  0  0
   29.5448   11.2372   28.2310 H   0  0  0  0  0  0  0  0  0  0  0  0
   27.8172   10.9527   28.3745 H   0  0  0  0  0  0  0  0  0  0  0  0
   29.3580   10.6027   25.7514 H   0  0  0  0  0  0  0  0  0  0  0  0
   27.6692   10.2240   26.0156 H   0  0  0  0  0  0  0  0  0  0  0  0
   27.6719   12.3715   25.0328 H   0  0  0  0  0  0  0  0  0  0  0  0
   27.2420   12.5840   26.7032 H   0  0  0  0  0  0  0  0  0  0  0  0
   29.5155   13.3789   27.2609 H   0  0  0  0  0  0  0  0  0  0  0  0
   28.6324   14.3575   26.1205 H   0  0  0  0  0  0  0  0  0  0  0  0
   30.2835   15.7559   21.3107 H   0  0  0  0  0  0  0  0  0  0  0  0
   29.3201   13.8878   19.9927 H   0  0  0  0  0  0  0  0  0  0  0  0
   28.8387   11.7073   21.0637 H   0  0  0  0  0  0  0  0  0  0  0  0
   29.2955   11.3550   23.4698 H   0  0  0  0  0  0  0  0  0  0  0  0
   31.6621   14.9330   27.4127 H   0  0  0  0  0  0  0  0  0  0  0  0
   32.5177   17.2531   27.1664 H   0  0  0  0  0  0  0  0  0  0  0  0
   32.3470   18.4347   24.9961 H   0  0  0  0  0  0  0  0  0  0  0  0
   31.3246   17.3218   23.0276 H   0  0  0  0  0  0  0  0  0  0  0  0
   32.5780   12.9232   23.9573 H   0  0  0  0  0  0  0  0  0  0  0  0
   33.4001   10.5584   25.5757 H   0  0  0  0  0  0  0  0  0  0  0  0
   34.1476   11.1480   24.0847 H   0  0  0  0  0  0  0  0  0  0  0  0
   28.3859    1.1462   31.6803 H   0  0  0  0  0  0  0  0  0  0  0  0
   30.2792   -0.3343   31.1338 H   0  0  0  0  0  0  0  0  0  0  0  0
   32.4723    0.6193   30.4713 H   0  0  0  0  0  0  0  0  0  0  0  0
   32.7598    3.0833   30.3371 H   0  0  0  0  0  0  0  0  0  0  0  0
   29.3077    4.7786   33.3500 H   0  0  0  0  0  0  0  0  0  0  0  0
   27.4237    6.2326   33.9341 H   0  0  0  0  0  0  0  0  0  0  0  0
   25.1496    4.6078   30.6456 H   0  0  0  0  0  0  0  0  0  0  0  0
   27.0405    3.1496   30.0601 H   0  0  0  0  0  0  0  0  0  0  0  0
  1  8  1  0
  8  9  1  0
  9 10  1  0
 10 11  1  0
 11 12  1  0
 12 13  1  0
 12 14  1  0
 14 15  2  0
 15 16  1  0
 16 17  1  0
 17 12  1  0
 16 18  2  0
 18 19  1  0
 19 20  2  0
 20 21  1  0
 21 17  2  0
 14 22  1  0
 22 23  2  0
 23 24  1  0
 24 25  2  0
 25 15  1  0
 13 26  2  0
 13 27  1  0
 27 28  1  0
  7 29  1  0
 29 30  1  0
 29 31  2  0
 30 32  1  0
 32 33  2  0
 33 34  1  0
 34 35  2  0
 35 36  1  0
 36 30  2  0
 32 37  1  0
 37 38  2  0
 38 39  1  0
 39 40  2  0
 40 41  1  0
 41 42  2  0
 42 37  1  0
 40 43  1  0
 28 44  1  0
  1  2  1  0
  2  3  1  0
 44 45  1  0
  3  4  1  0
 44 46  1  0
  4  5  1  0
 44 47  1  0
  5  6  1  0
 43 48  1  0
  6  1  1  0
 43 49  1  0
  4  7  1  0
 43 50  1  0
  2 51  1  0
  2 52  1  0
  3 53  1  0
  3 54  1  0
  4 55  1  0
  5 56  1  0
  5 57  1  0
  6 58  1  0
  6 59  1  0
  7 60  1  0
  8 61  1  0
  8 62  1  0
  9 63  1  0
  9 64  1  0
 10 65  1  0
 10 66  1  0
 11 67  1  0
 11 68  1  0
 18 69  1  0
 19 70  1  0
 20 71  1  0
 21 72  1  0
 22 73  1  0
 23 74  1  0
 24 75  1  0
 25 76  1  0
 27 77  1  0
 28 78  1  0
 28 79  1  0
 33 80  1  0
 34 81  1  0
 35 82  1  0
 36 83  1  0
 38 84  1  0
 39 85  1  0
 41 86  1  0
 42 87  1  0
M  END
> <Uni-Dock RESULT> 
ENERGY=   -5.073  LOWER_BOUND=    4.557  UPPER_BOUND=   11.217
INTER + INTRA:          -5.073
INTER:                  -5.073
INTRA:                   0.000
UNBOUND:                 0.000

$$$$

     RDKit          3D

 87 92  0  0  0  0  0  0  0  0999 V2000
   27.9994   13.4235   26.1977 N   0  0  0  0  0  0  0  0  0  0  0  0
   27.4885   13.8507   27.5133 C   0  0  0  0  0  0  0  0  0  0  0  0
   26.5457   12.8064   28.1057 C   0  0  0  0  0  0  0  0  0  0  0  0
   27.2229   11.4395   28.2063 C   0  0  0  0  0  0  0  0  0  0  0  0
   27.8376   11.0500   26.8651 C   0  0  0  0  0  0  0  0  0  0  0  0
   28.7439   12.1595   26.3342 C   0  0  0  0  0  0  0  0  0  0  0  0
   26.2670   10.4278   28.6367 N   0  0  0  0  0  0  0  0  0  0  0  0
   28.8480   14.4896   25.6276 C   0  0  0  0  0  0  0  0  0  0  0  0
   29.1527   14.2658   24.1380 C   0  0  0  0  0  0  0  0  0  0  0  0
   29.8865   15.4453   23.4960 C   0  0  0  0  0  0  0  0  0  0  0  0
   31.3449   15.6751   23.9232 C   0  0  0  0  0  0  0  0  0  0  0  0
   32.4313   14.6331   23.5218 C   0  0  0  0  0  0  0  0  0  0  0  0
   32.4622   13.3794   24.4364 C   0  0  0  0  0  0  0  0  0  0  0  0
   33.8013   15.3488   23.6485 C   0  0  0  0  0  0  0  0  0  0  0  0
   34.4300   15.4394   22.3899 C   0  0  0  0  0  0  0  0  0  0  0  0
   33.6028   14.7876   21.3997 C   0  0  0  0  0  0  0  0  0  0  0  0
   32.4380   14.2825   22.0216 C   0  0  0  0  0  0  0  0  0  0  0  0
   33.8302   14.5826   20.0474 C   0  0  0  0  0  0  0  0  0  0  0  0
   32.8921   13.8507   19.3152 C   0  0  0  0  0  0  0  0  0  0  0  0
   31.7493   13.3252   19.9371 C   0  0  0  0  0  0  0  0  0  0  0  0
   31.5190   13.5312   21.2986 C   0  0  0  0  0  0  0  0  0  0  0  0
   34.3965   15.8670   24.7924 C   0  0  0  0  0  0  0  0  0  0  0  0
   35.6381   16.4916   24.6633 C   0  0  0  0  0  0  0  0  0  0  0  0
   36.2645   16.5899   23.4107 C   0  0  0  0  0  0  0  0  0  0  0  0
   35.6623   16.0610   22.2645 C   0  0  0  0  0  0  0  0  0  0  0  0
   31.8538   13.3064   25.5024 O   0  0  0  0  0  0  0  0  0  0  0  0
   33.2783   12.3422   24.0165 N   0  0  0  0  0  0  0  0  0  0  0  0
   33.5547   11.2112   24.9014 C   0  0  0  0  0  0  0  0  0  0  0  0
   26.0692   10.1257   29.9646 C   0  0  0  0  0  0  0  0  0  0  0  0
   24.9121    9.2426   30.2185 C   0  0  0  0  0  0  0  0  0  0  0  0
   26.7624   10.5101   30.8952 O   0  0  0  0  0  0  0  0  0  0  0  0
   23.5900    9.7293   30.1557 C   0  0  0  0  0  0  0  0  0  0  0  0
   22.5503    8.8063   30.3656 C   0  0  0  0  0  0  0  0  0  0  0  0
   22.8200    7.4596   30.6331 C   0  0  0  0  0  0  0  0  0  0  0  0
   24.1364    7.0063   30.7024 C   0  0  0  0  0  0  0  0  0  0  0  0
   25.1869    7.8977   30.4992 C   0  0  0  0  0  0  0  0  0  0  0  0
   23.2723   11.1457   29.9084 C   0  0  0  0  0  0  0  0  0  0  0  0
   23.6874   12.1429   30.8048 C   0  0  0  0  0  0  0  0  0  0  0  0
   23.4018   13.4913   30.5688 C   0  0  0  0  0  0  0  0  0  0  0  0
   22.6868   13.8771   29.4281 C   0  0  0  0  0  0  0  0  0  0  0  0
   22.2628   12.8854   28.5311 C   0  0  0  0  0  0  0  0  0  0  0  0
   22.5500   11.5374   28.7712 C   0  0  0  0  0  0  0  0  0  0  0  0
   22.3889   15.3289   29.1453 C   0  0  0  0  0  0  0  0  0  0  0  0
   34.6427   11.4579   25.9514 C   0  0  0  0  0  0  0  0  0  0  0  0
   34.8435   10.3452   26.6952 F   0  0  0  0  0  0  0  0  0  0  0  0
   34.3430   12.4666   26.7937 F   0  0  0  0  0  0  0  0  0  0  0  0
   35.8203   11.7561   25.3513 F   0  0  0  0  0  0  0  0  0  0  0  0
   23.0473   15.7890   28.0450 F   0  0  0  0  0  0  0  0  0  0  0  0
   21.0653   15.5538   28.9095 F   0  0  0  0  0  0  0  0  0  0  0  0
   22.7323   16.1670   30.1636 F   0  0  0  0  0  0  0  0  0  0  0  0
   28.3135   14.0434   28.2115 H   0  0  0  0  0  0  0  0  0  0  0  0
   26.9265   14.7870   27.4081 H   0  0  0  0  0  0  0  0  0  0  0  0
   25.6433   12.7321   27.4837 H   0  0  0  0  0  0  0  0  0  0  0  0
   26.2128   13.1354   29.0969 H   0  0  0  0  0  0  0  0  0  0  0  0
   28.0219   11.4988   28.9562 H   0  0  0  0  0  0  0  0  0  0  0  0
   27.0478   10.8381   26.1328 H   0  0  0  0  0  0  0  0  0  0  0  0
   28.4137   10.1235   26.9746 H   0  0  0  0  0  0  0  0  0  0  0  0
   29.1233   11.8262   25.3635 H   0  0  0  0  0  0  0  0  0  0  0  0
   29.6088   12.2820   26.9986 H   0  0  0  0  0  0  0  0  0  0  0  0
   25.5494   10.1512   27.9780 H   0  0  0  0  0  0  0  0  0  0  0  0
   29.7688   14.6048   26.2095 H   0  0  0  0  0  0  0  0  0  0  0  0
   28.3102   15.4437   25.7043 H   0  0  0  0  0  0  0  0  0  0  0  0
   29.7179   13.3458   23.9739 H   0  0  0  0  0  0  0  0  0  0  0  0
   28.1999   14.1374   23.6071 H   0  0  0  0  0  0  0  0  0  0  0  0
   29.8322   15.3504   22.4064 H   0  0  0  0  0  0  0  0  0  0  0  0
   29.3246   16.3613   23.7259 H   0  0  0  0  0  0  0  0  0  0  0  0
   31.3717   15.8366   25.0087 H   0  0  0  0  0  0  0  0  0  0  0  0
   31.6222   16.6468   23.4860 H   0  0  0  0  0  0  0  0  0  0  0  0
   34.7191   14.9698   19.5601 H   0  0  0  0  0  0  0  0  0  0  0  0
   33.0525   13.6776   18.2532 H   0  0  0  0  0  0  0  0  0  0  0  0
   31.0367   12.7482   19.3513 H   0  0  0  0  0  0  0  0  0  0  0  0
   30.6392   13.1025   21.7676 H   0  0  0  0  0  0  0  0  0  0  0  0
   33.9161   15.7933   25.7641 H   0  0  0  0  0  0  0  0  0  0  0  0
   36.1254   16.9093   25.5420 H   0  0  0  0  0  0  0  0  0  0  0  0
   37.2323   17.0832   23.3328 H   0  0  0  0  0  0  0  0  0  0  0  0
   36.1589   16.1412   21.3033 H   0  0  0  0  0  0  0  0  0  0  0  0
   33.9397   12.5374   23.2707 H   0  0  0  0  0  0  0  0  0  0  0  0
   32.6249   10.9214   25.4031 H   0  0  0  0  0  0  0  0  0  0  0  0
   33.8580   10.3802   24.2560 H   0  0  0  0  0  0  0  0  0  0  0  0
   21.5140    9.1397   30.3400 H   0  0  0  0  0  0  0  0  0  0  0  0
   21.9983    6.7666   30.7972 H   0  0  0  0  0  0  0  0  0  0  0  0
   24.3422    5.9606   30.9168 H   0  0  0  0  0  0  0  0  0  0  0  0
   26.2167    7.5500   30.5535 H   0  0  0  0  0  0  0  0  0  0  0  0
   24.2539   11.8755   31.6968 H   0  0  0  0  0  0  0  0  0  0  0  0
   23.7510   14.2374   31.2812 H   0  0  0  0  0  0  0  0  0  0  0  0
   21.7077   13.1614   27.6353 H   0  0  0  0  0  0  0  0  0  0  0  0
   22.2130   10.7918   28.0529 H   0  0  0  0  0  0  0  0  0  0  0  0
  1  8  1  0
  8  9  1  0
  9 10  1  0
 10 11  1  0
 11 12  1  0
 12 13  1  0
 12 14  1  0
 14 15  2  0
 15 16  1  0
 16 17  1  0
 17 12  1  0
 16 18  2  0
 18 19  1  0
 19 20  2  0
 20 21  1  0
 21 17  2  0
 14 22  1  0
 22 23  2  0
 23 24  1  0
 24 25  2  0
 25 15  1  0
 13 26  2  0
 13 27  1  0
 27 28  1  0
  7 29  1  0
 29 30  1  0
 29 31  2  0
 30 32  1  0
 32 33  2  0
 33 34  1  0
 34 35  2  0
 35 36  1  0
 36 30  2  0
 32 37  1  0
 37 38  2  0
 38 39  1  0
 39 40  2  0
 40 41  1  0
 41 42  2  0
 42 37  1  0
 40 43  1  0
 28 44  1  0
  1  2  1  0
  2  3  1  0
 44 45  1  0
  3  4  1  0
 44 46  1  0
  4  5  1  0
 44 47  1  0
  5  6  1  0
 43 48  1  0
  6  1  1  0
 43 49  1  0
  4  7  1  0
 43 50  1  0
  2 51  1  0
  2 52  1  0
  3 53  1  0
  3 54  1  0
  4 55  1  0
  5 56  1  0
  5 57  1  0
  6 58  1  0
  6 59  1  0
  7 60  1  0
  8 61  1  0
  8 62  1  0
  9 63  1  0
  9 64  1  0
 10 65  1  0
 10 66  1  0
 11 67  1  0
 11 68  1  0
 18 69  1  0
 19 70  1  0
 20 71  1  0
 21 72  1  0
 22 73  1  0
 23 74  1  0
 24 75  1  0
 25 76  1  0
 27 77  1  0
 28 78  1  0
 28 79  1  0
 33 80  1  0
 34 81  1  0
 35 82  1  0
 36 83  1  0
 38 84  1  0
 39 85  1  0
 41 86  1  0
 42 87  1  0
M  END
> <Uni-Dock RESULT> 
ENERGY=   -4.774  LOWER_BOUND=    4.098  UPPER_BOUND=   12.329
INTER + INTRA:          -4.774
INTER:                  -4.774
INTRA:                   0.000
UNBOUND:                 0.000

$$$$

     RDKit          3D

 87 92  0  0  0  0  0  0  0  0999 V2000
   30.0161    9.4632   29.3842 N   0  0  0  0  0  0  0  0  0  0  0  0
   30.7024   10.7653   29.4725 C   0  0  0  0  0  0  0  0  0  0  0  0
   31.1347   11.2570   28.0934 C   0  0  0  0  0  0  0  0  0  0  0  0
   29.9471   11.3354   27.1339 C   0  0  0  0  0  0  0  0  0  0  0  0
   29.1820   10.0153   27.1249 C   0  0  0  0  0  0  0  0  0  0  0  0
   28.8123    9.5858   28.5436 C   0  0  0  0  0  0  0  0  0  0  0  0
   30.3998   11.6661   25.7891 N   0  0  0  0  0  0  0  0  0  0  0  0
   29.6792    8.9895   30.7420 C   0  0  0  0  0  0  0  0  0  0  0  0
   29.2599    7.5111   30.7623 C   0  0  0  0  0  0  0  0  0  0  0  0
   29.0725    6.9642   32.1791 C   0  0  0  0  0  0  0  0  0  0  0  0
   27.8624    7.4828   32.9723 C   0  0  0  0  0  0  0  0  0  0  0  0
   26.4251    7.0980   32.5106 C   0  0  0  0  0  0  0  0  0  0  0  0
   25.8974    7.9568   31.3303 C   0  0  0  0  0  0  0  0  0  0  0  0
   25.4905    7.3333   33.7257 C   0  0  0  0  0  0  0  0  0  0  0  0
   24.9182    6.1175   34.1520 C   0  0  0  0  0  0  0  0  0  0  0  0
   25.3597    5.0543   33.2777 C   0  0  0  0  0  0  0  0  0  0  0  0
   26.2218    5.5866   32.2917 C   0  0  0  0  0  0  0  0  0  0  0  0
   25.0230    3.7093   33.2738 C   0  0  0  0  0  0  0  0  0  0  0  0
   25.5396    2.8938   32.2639 C   0  0  0  0  0  0  0  0  0  0  0  0
   26.3732    3.4263   31.2687 C   0  0  0  0  0  0  0  0  0  0  0  0
   26.7133    4.7804   31.2717 C   0  0  0  0  0  0  0  0  0  0  0  0
   25.2077    8.5307   34.3719 C   0  0  0  0  0  0  0  0  0  0  0  0
   24.3426    8.4996   35.4670 C   0  0  0  0  0  0  0  0  0  0  0  0
   23.7758    7.2900   35.8988 C   0  0  0  0  0  0  0  0  0  0  0  0
   24.0604    6.0894   35.2402 C   0  0  0  0  0  0  0  0  0  0  0  0
   26.4525    8.9825   30.9408 O   0  0  0  0  0  0  0  0  0  0  0  0
   24.7064    7.5385   30.7607 N   0  0  0  0  0  0  0  0  0  0  0  0
   24.0072    8.3869   29.7965 C   0  0  0  0  0  0  0  0  0  0  0  0
   30.4948   12.9661   25.3479 C   0  0  0  0  0  0  0  0  0  0  0  0
   31.1782   13.1151   24.0464 C   0  0  0  0  0  0  0  0  0  0  0  0
   30.0596   13.9505   25.9277 O   0  0  0  0  0  0  0  0  0  0  0  0
   32.5793   12.9992   23.9360 C   0  0  0  0  0  0  0  0  0  0  0  0
   33.1381   13.1091   22.6503 C   0  0  0  0  0  0  0  0  0  0  0  0
   32.3337   13.3319   21.5273 C   0  0  0  0  0  0  0  0  0  0  0  0
   30.9520   13.4555   21.6652 C   0  0  0  0  0  0  0  0  0  0  0  0
   30.3704   13.3514   22.9263 C   0  0  0  0  0  0  0  0  0  0  0  0
   33.4573   12.7969   25.1006 C   0  0  0  0  0  0  0  0  0  0  0  0
   33.5318   13.7583   26.1205 C   0  0  0  0  0  0  0  0  0  0  0  0
   34.3524   13.5661   27.2364 C   0  0  0  0  0  0  0  0  0  0  0  0
   35.1256   12.4050   27.3583 C   0  0  0  0  0  0  0  0  0  0  0  0
   35.0615   11.4426   26.3396 C   0  0  0  0  0  0  0  0  0  0  0  0
   34.2397   11.6390   25.2244 C   0  0  0  0  0  0  0  0  0  0  0  0
   35.9995   12.1699   28.5656 C   0  0  0  0  0  0  0  0  0  0  0  0
   23.1602    9.5066   30.4096 C   0  0  0  0  0  0  0  0  0  0  0  0
   22.5326   10.2108   29.4392 F   0  0  0  0  0  0  0  0  0  0  0  0
   23.8853   10.3742   31.1434 F   0  0  0  0  0  0  0  0  0  0  0  0
   22.1998    8.9877   31.2123 F   0  0  0  0  0  0  0  0  0  0  0  0
   35.5614   11.1300   29.3287 F   0  0  0  0  0  0  0  0  0  0  0  0
   37.2857   11.8697   28.2284 F   0  0  0  0  0  0  0  0  0  0  0  0
   36.0758   13.2419   29.4036 F   0  0  0  0  0  0  0  0  0  0  0  0
   30.0593   11.5169   29.9489 H   0  0  0  0  0  0  0  0  0  0  0  0
   31.6035   10.6699   30.0909 H   0  0  0  0  0  0  0  0  0  0  0  0
   31.9003   10.5822   27.6869 H   0  0  0  0  0  0  0  0  0  0  0  0
   31.6076   12.2412   28.1883 H   0  0  0  0  0  0  0  0  0  0  0  0
   29.2730   12.1312   27.4752 H   0  0  0  0  0  0  0  0  0  0  0  0
   29.7839    9.2309   26.6480 H   0  0  0  0  0  0  0  0  0  0  0  0
   28.2724   10.1163   26.5209 H   0  0  0  0  0  0  0  0  0  0  0  0
   28.2961    8.6244   28.4631 H   0  0  0  0  0  0  0  0  0  0  0  0
   28.1023   10.3028   28.9754 H   0  0  0  0  0  0  0  0  0  0  0  0
   30.9114   10.9564   25.2794 H   0  0  0  0  0  0  0  0  0  0  0  0
   28.9127    9.6270   31.1958 H   0  0  0  0  0  0  0  0  0  0  0  0
   30.5718    9.0776   31.3751 H   0  0  0  0  0  0  0  0  0  0  0  0
   28.3540    7.3388   30.1771 H   0  0  0  0  0  0  0  0  0  0  0  0
   30.0514    6.9221   30.2798 H   0  0  0  0  0  0  0  0  0  0  0  0
   29.0459    5.8701   32.1399 H   0  0  0  0  0  0  0  0  0  0  0  0
   29.9758    7.2020   32.7578 H   0  0  0  0  0  0  0  0  0  0  0  0
   27.9418    8.5741   33.0606 H   0  0  0  0  0  0  0  0  0  0  0  0
   28.0074    7.1051   33.9963 H   0  0  0  0  0  0  0  0  0  0  0  0
   24.3654    3.2906   34.0286 H   0  0  0  0  0  0  0  0  0  0  0  0
   25.2865    1.8359   32.2423 H   0  0  0  0  0  0  0  0  0  0  0  0
   26.7557    2.7764   30.4845 H   0  0  0  0  0  0  0  0  0  0  0  0
   27.3445    5.1797   30.4843 H   0  0  0  0  0  0  0  0  0  0  0  0
   25.6435    9.4695   34.0415 H   0  0  0  0  0  0  0  0  0  0  0  0
   24.1065    9.4220   35.9937 H   0  0  0  0  0  0  0  0  0  0  0  0
   23.1050    7.2887   36.7567 H   0  0  0  0  0  0  0  0  0  0  0  0
   23.6130    5.1622   35.5825 H   0  0  0  0  0  0  0  0  0  0  0  0
   24.1653    6.8405   31.2626 H   0  0  0  0  0  0  0  0  0  0  0  0
   24.7434    8.8221   29.1116 H   0  0  0  0  0  0  0  0  0  0  0  0
   23.3603    7.7238   29.2125 H   0  0  0  0  0  0  0  0  0  0  0  0
   34.2167   13.0397   22.5188 H   0  0  0  0  0  0  0  0  0  0  0  0
   32.7907   13.4187   20.5444 H   0  0  0  0  0  0  0  0  0  0  0  0
   30.3310   13.6350   20.7913 H   0  0  0  0  0  0  0  0  0  0  0  0
   29.2925   13.4486   23.0404 H   0  0  0  0  0  0  0  0  0  0  0  0
   32.9348   14.6683   26.0594 H   0  0  0  0  0  0  0  0  0  0  0  0
   34.3745   14.3293   28.0131 H   0  0  0  0  0  0  0  0  0  0  0  0
   35.6516   10.5299   26.4135 H   0  0  0  0  0  0  0  0  0  0  0  0
   34.2067   10.8707   24.4537 H   0  0  0  0  0  0  0  0  0  0  0  0
  1  8  1  0
  8  9  1  0
  9 10  1  0
 10 11  1  0
 11 12  1  0
 12 13  1  0
 12 14  1  0
 14 15  2  0
 15 16  1  0
 16 17  1  0
 17 12  1  0
 16 18  2  0
 18 19  1  0
 19 20  2  0
 20 21  1  0
 21 17  2  0
 14 22  1  0
 22 23  2  0
 23 24  1  0
 24 25  2  0
 25 15  1  0
 13 26  2  0
 13 27  1  0
 27 28  1  0
  7 29  1  0
 29 30  1  0
 29 31  2  0
 30 32  1  0
 32 33  2  0
 33 34  1  0
 34 35  2  0
 35 36  1  0
 36 30  2  0
 32 37  1  0
 37 38  2  0
 38 39  1  0
 39 40  2  0
 40 41  1  0
 41 42  2  0
 42 37  1  0
 40 43  1  0
 28 44  1  0
  1  2  1  0
  2  3  1  0
 44 45  1  0
  3  4  1  0
 44 46  1  0
  4  5  1  0
 44 47  1  0
  5  6  1  0
 43 48  1  0
  6  1  1  0
 43 49  1  0
  4  7  1  0
 43 50  1  0
  2 51  1  0
  2 52  1  0
  3 53  1  0
  3 54  1  0
  4 55  1  0
  5 56  1  0
  5 57  1  0
  6 58  1  0
  6 59  1  0
  7 60  1  0
  8 61  1  0
  8 62  1  0
  9 63  1  0
  9 64  1  0
 10 65  1  0
 10 66  1  0
 11 67  1  0
 11 68  1  0
 18 69  1  0
 19 70  1  0
 20 71  1  0
 21 72  1  0
 22 73  1  0
 23 74  1  0
 24 75  1  0
 25 76  1  0
 27 77  1  0
 28 78  1  0
 28 79  1  0
 33 80  1  0
 34 81  1  0
 35 82  1  0
 36 83  1  0
 38 84  1  0
 39 85  1  0
 41 86  1  0
 42 87  1  0
M  END
> <Uni-Dock RESULT> 
ENERGY=   -4.632  LOWER_BOUND=    3.141  UPPER_BOUND=    5.911
INTER + INTRA:          -4.632
INTER:                  -4.632
INTRA:                   0.000
UNBOUND:                 0.000

$$$$

     RDKit          3D

 87 92  0  0  0  0  0  0  0  0999 V2000
   28.5592   10.4852   28.7982 N   0  0  0  0  0  0  0  0  0  0  0  0
   29.4264    9.9936   27.7116 C   0  0  0  0  0  0  0  0  0  0  0  0
   30.8822   10.3899   27.9441 C   0  0  0  0  0  0  0  0  0  0  0  0
   31.3829    9.8956   29.3013 C   0  0  0  0  0  0  0  0  0  0  0  0
   30.4251   10.3227   30.4098 C   0  0  0  0  0  0  0  0  0  0  0  0
   28.9905    9.9102   30.0843 C   0  0  0  0  0  0  0  0  0  0  0  0
   32.7218   10.4050   29.5667 N   0  0  0  0  0  0  0  0  0  0  0  0
   27.1532   10.1446   28.5003 C   0  0  0  0  0  0  0  0  0  0  0  0
   26.1620   10.8928   29.4055 C   0  0  0  0  0  0  0  0  0  0  0  0
   24.7030   10.6789   28.9965 C   0  0  0  0  0  0  0  0  0  0  0  0
   24.1101    9.2809   29.2340 C   0  0  0  0  0  0  0  0  0  0  0  0
   23.8936    8.7813   30.6937 C   0  0  0  0  0  0  0  0  0  0  0  0
   25.1841    8.2427   31.3673 C   0  0  0  0  0  0  0  0  0  0  0  0
   22.8742    7.6149   30.6172 C   0  0  0  0  0  0  0  0  0  0  0  0
   21.6894    7.9481   31.3048 C   0  0  0  0  0  0  0  0  0  0  0  0
   21.8384    9.2582   31.8973 C   0  0  0  0  0  0  0  0  0  0  0  0
   23.1186    9.7704   31.5851 C   0  0  0  0  0  0  0  0  0  0  0  0
   20.9645    9.9749   32.7004 C   0  0  0  0  0  0  0  0  0  0  0  0
   21.3824   11.2069   33.2097 C   0  0  0  0  0  0  0  0  0  0  0  0
   22.6630   11.7037   32.9232 C   0  0  0  0  0  0  0  0  0  0  0  0
   23.5438   10.9831   32.1144 C   0  0  0  0  0  0  0  0  0  0  0  0
   23.0182    6.3896   29.9776 C   0  0  0  0  0  0  0  0  0  0  0  0
   21.9500    5.4923   30.0257 C   0  0  0  0  0  0  0  0  0  0  0  0
   20.7659    5.8227   30.7036 C   0  0  0  0  0  0  0  0  0  0  0  0
   20.6301    7.0555   31.3500 C   0  0  0  0  0  0  0  0  0  0  0  0
   26.2239    8.0180   30.7508 O   0  0  0  0  0  0  0  0  0  0  0  0
   25.0897    7.9600   32.7197 N   0  0  0  0  0  0  0  0  0  0  0  0
   26.1667    7.2468   33.4052 C   0  0  0  0  0  0  0  0  0  0  0  0
   33.8538    9.7130   29.2011 C   0  0  0  0  0  0  0  0  0  0  0  0
   35.1071   10.4814   29.3494 C   0  0  0  0  0  0  0  0  0  0  0  0
   33.8863    8.5598   28.7968 O   0  0  0  0  0  0  0  0  0  0  0  0
   35.4587   11.4952   28.4344 C   0  0  0  0  0  0  0  0  0  0  0  0
   36.6469   12.2056   28.6811 C   0  0  0  0  0  0  0  0  0  0  0  0
   37.4505   11.9111   29.7881 C   0  0  0  0  0  0  0  0  0  0  0  0
   37.0869   10.8952   30.6708 C   0  0  0  0  0  0  0  0  0  0  0  0
   35.9157   10.1744   30.4517 C   0  0  0  0  0  0  0  0  0  0  0  0
   34.6528   11.8088   27.2426 C   0  0  0  0  0  0  0  0  0  0  0  0
   34.4550   10.8508   26.2359 C   0  0  0  0  0  0  0  0  0  0  0  0
   33.6789   11.1368   25.1084 C   0  0  0  0  0  0  0  0  0  0  0  0
   33.0827   12.3949   24.9567 C   0  0  0  0  0  0  0  0  0  0  0  0
   33.2815   13.3597   25.9555 C   0  0  0  0  0  0  0  0  0  0  0  0
   34.0592   13.0697   27.0817 C   0  0  0  0  0  0  0  0  0  0  0  0
   32.2236   12.7142   23.7582 C   0  0  0  0  0  0  0  0  0  0  0  0
   26.1551    5.7251   33.2276 C   0  0  0  0  0  0  0  0  0  0  0  0
   27.1687    5.1597   33.9236 F   0  0  0  0  0  0  0  0  0  0  0  0
   26.2777    5.3439   31.9405 F   0  0  0  0  0  0  0  0  0  0  0  0
   25.0004    5.2020   33.7058 F   0  0  0  0  0  0  0  0  0  0  0  0
   30.9158   12.8991   24.0917 F   0  0  0  0  0  0  0  0  0  0  0  0
   32.6131   13.8577   23.1266 F   0  0  0  0  0  0  0  0  0  0  0  0
   32.2316   11.7415   22.8037 F   0  0  0  0  0  0  0  0  0  0  0  0
   29.3509    8.9030   27.6116 H   0  0  0  0  0  0  0  0  0  0  0  0
   29.1097   10.4303   26.7563 H   0  0  0  0  0  0  0  0  0  0  0  0
   30.9788   11.4826   27.8849 H   0  0  0  0  0  0  0  0  0  0  0  0
   31.5051    9.9797   27.1409 H   0  0  0  0  0  0  0  0  0  0  0  0
   31.4301    8.7995   29.2792 H   0  0  0  0  0  0  0  0  0  0  0  0
   30.4717   11.4099   30.5537 H   0  0  0  0  0  0  0  0  0  0  0  0
   30.7320    9.8721   31.3611 H   0  0  0  0  0  0  0  0  0  0  0  0
   28.3598   10.2721   30.9018 H   0  0  0  0  0  0  0  0  0  0  0  0
   28.9129    8.8155   30.0716 H   0  0  0  0  0  0  0  0  0  0  0  0
   32.8163   11.3937   29.7637 H   0  0  0  0  0  0  0  0  0  0  0  0
   26.9980    9.0614   28.5497 H   0  0  0  0  0  0  0  0  0  0  0  0
   26.9318   10.4437   27.4674 H   0  0  0  0  0  0  0  0  0  0  0  0
   26.2935   10.6274   30.4567 H   0  0  0  0  0  0  0  0  0  0  0  0
   26.3739   11.9680   29.3335 H   0  0  0  0  0  0  0  0  0  0  0  0
   24.0790   11.4322   29.4888 H   0  0  0  0  0  0  0  0  0  0  0  0
   24.6147   10.8994   27.9236 H   0  0  0  0  0  0  0  0  0  0  0  0
   24.7073    8.5468   28.6775 H   0  0  0  0  0  0  0  0  0  0  0  0
   23.1332    9.2936   28.7264 H   0  0  0  0  0  0  0  0  0  0  0  0
   19.9783    9.5922   32.9422 H   0  0  0  0  0  0  0  0  0  0  0  0
   20.7121   11.7843   33.8429 H   0  0  0  0  0  0  0  0  0  0  0  0
   22.9732   12.6600   33.3393 H   0  0  0  0  0  0  0  0  0  0  0  0
   24.5371   11.3734   31.9176 H   0  0  0  0  0  0  0  0  0  0  0  0
   23.9325    6.1289   29.4519 H   0  0  0  0  0  0  0  0  0  0  0  0
   22.0343    4.5270   29.5306 H   0  0  0  0  0  0  0  0  0  0  0  0
   19.9445    5.1081   30.7267 H   0  0  0  0  0  0  0  0  0  0  0  0
   19.7106    7.2968   31.8728 H   0  0  0  0  0  0  0  0  0  0  0  0
   24.1607    7.9294   33.1295 H   0  0  0  0  0  0  0  0  0  0  0  0
   27.1276    7.6452   33.0610 H   0  0  0  0  0  0  0  0  0  0  0  0
   26.0687    7.4865   34.4692 H   0  0  0  0  0  0  0  0  0  0  0  0
   36.9652   12.9879   27.9939 H   0  0  0  0  0  0  0  0  0  0  0  0
   38.3676   12.4713   29.9539 H   0  0  0  0  0  0  0  0  0  0  0  0
   37.7171   10.6649   31.5261 H   0  0  0  0  0  0  0  0  0  0  0  0
   35.6274    9.3792   31.1364 H   0  0  0  0  0  0  0  0  0  0  0  0
   34.8979    9.8592   26.3295 H   0  0  0  0  0  0  0  0  0  0  0  0
   33.5383   10.3637   24.3543 H   0  0  0  0  0  0  0  0  0  0  0  0
   32.8254   14.3445   25.8611 H   0  0  0  0  0  0  0  0  0  0  0  0
   34.1896   13.8374   27.8427 H   0  0  0  0  0  0  0  0  0  0  0  0
  1  8  1  0
  8  9  1  0
  9 10  1  0
 10 11  1  0
 11 12  1  0
 12 13  1  0
 12 14  1  0
 14 15  2  0
 15 16  1  0
 16 17  1  0
 17 12  1  0
 16 18  2  0
 18 19  1  0
 19 20  2  0
 20 21  1  0
 21 17  2  0
 14 22  1  0
 22 23  2  0
 23 24  1  0
 24 25  2  0
 25 15  1  0
 13 26  2  0
 13 27  1  0
 27 28  1  0
  7 29  1  0
 29 30  1  0
 29 31  2  0
 30 32  1  0
 32 33  2  0
 33 34  1  0
 34 35  2  0
 35 36  1  0
 36 30  2  0
 32 37  1  0
 37 38  2  0
 38 39  1  0
 39 40  2  0
 40 41  1  0
 41 42  2  0
 42 37  1  0
 40 43  1  0
 28 44  1  0
  1  2  1  0
  2  3  1  0
 44 45  1  0
  3  4  1  0
 44 46  1  0
  4  5  1  0
 44 47  1  0
  5  6  1  0
 43 48  1  0
  6  1  1  0
 43 49  1  0
  4  7  1  0
 43 50  1  0
  2 51  1  0
  2 52  1  0
  3 53  1  0
  3 54  1  0
  4 55  1  0
  5 56  1  0
  5 57  1  0
  6 58  1  0
  6 59  1  0
  7 60  1  0
  8 61  1  0
  8 62  1  0
  9 63  1  0
  9 64  1  0
 10 65  1  0
 10 66  1  0
 11 67  1  0
 11 68  1  0
 18 69  1  0
 19 70  1  0
 20 71  1  0
 21 72  1  0
 22 73  1  0
 23 74  1  0
 24 75  1  0
 25 76  1  0
 27 77  1  0
 28 78  1  0
 28 79  1  0
 33 80  1  0
 34 81  1  0
 35 82  1  0
 36 83  1  0
 38 84  1  0
 39 85  1  0
 41 86  1  0
 42 87  1  0
M  END
> <Uni-Dock RESULT> 
ENERGY=   -4.468  LOWER_BOUND=    1.935  UPPER_BOUND=    2.053
INTER + INTRA:          -4.468
INTER:                  -4.468
INTRA:                   0.000
UNBOUND:                 0.000

$$$$

     RDKit          3D

 87 92  0  0  0  0  0  0  0  0999 V2000
   28.3324    8.5608   30.1483 N   0  0  0  0  0  0  0  0  0  0  0  0
   27.3305    8.5973   31.2296 C   0  0  0  0  0  0  0  0  0  0  0  0
   26.5585    7.2829   31.3124 C   0  0  0  0  0  0  0  0  0  0  0  0
   27.5030    6.0939   31.4900 C   0  0  0  0  0  0  0  0  0  0  0  0
   28.5975    6.1201   30.4273 C   0  0  0  0  0  0  0  0  0  0  0  0
   29.2991    7.4769   30.3956 C   0  0  0  0  0  0  0  0  0  0  0  0
   26.7627    4.8409   31.4221 N   0  0  0  0  0  0  0  0  0  0  0  0
   29.0057    9.8721   30.0545 C   0  0  0  0  0  0  0  0  0  0  0  0
   29.8227   10.0230   28.7616 C   0  0  0  0  0  0  0  0  0  0  0  0
   30.3849   11.4337   28.5731 C   0  0  0  0  0  0  0  0  0  0  0  0
   31.5116   11.8681   29.5239 C   0  0  0  0  0  0  0  0  0  0  0  0
   32.9040   11.1763   29.4241 C   0  0  0  0  0  0  0  0  0  0  0  0
   32.9684    9.7971   30.1332 C   0  0  0  0  0  0  0  0  0  0  0  0
   33.9189   12.1185   30.1224 C   0  0  0  0  0  0  0  0  0  0  0  0
   34.8726   12.5903   29.1975 C   0  0  0  0  0  0  0  0  0  0  0  0
   34.6129   11.9966   27.9053 C   0  0  0  0  0  0  0  0  0  0  0  0
   33.4871   11.1465   27.9984 C   0  0  0  0  0  0  0  0  0  0  0  0
   35.3103   12.1216   26.7135 C   0  0  0  0  0  0  0  0  0  0  0  0
   34.8876   11.3759   25.6103 C   0  0  0  0  0  0  0  0  0  0  0  0
   33.7872   10.5109   25.7089 C   0  0  0  0  0  0  0  0  0  0  0  0
   33.0839   10.3843   26.9083 C   0  0  0  0  0  0  0  0  0  0  0  0
   33.9535   12.5054   31.4566 C   0  0  0  0  0  0  0  0  0  0  0  0
   34.9584   13.3858   31.8611 C   0  0  0  0  0  0  0  0  0  0  0  0
   35.9060   13.8632   30.9419 C   0  0  0  0  0  0  0  0  0  0  0  0
   35.8686   13.4652   29.6016 C   0  0  0  0  0  0  0  0  0  0  0  0
   32.0906    9.3854   30.8895 O   0  0  0  0  0  0  0  0  0  0  0  0
   34.1197    9.0580   29.9189 N   0  0  0  0  0  0  0  0  0  0  0  0
   34.3844    7.8530   30.7040 C   0  0  0  0  0  0  0  0  0  0  0  0
   26.2343    4.2415   32.5425 C   0  0  0  0  0  0  0  0  0  0  0  0
   25.3342    3.1058   32.2536 C   0  0  0  0  0  0  0  0  0  0  0  0
   26.4622    4.5637   33.6994 O   0  0  0  0  0  0  0  0  0  0  0  0
   24.0243    3.3115   31.7735 C   0  0  0  0  0  0  0  0  0  0  0  0
   23.2557    2.1708   31.4818 C   0  0  0  0  0  0  0  0  0  0  0  0
   23.7706    0.8831   31.6683 C   0  0  0  0  0  0  0  0  0  0  0  0
   25.0644    0.7069   32.1564 C   0  0  0  0  0  0  0  0  0  0  0  0
   25.8489    1.8182   32.4544 C   0  0  0  0  0  0  0  0  0  0  0  0
   23.4409    4.6519   31.5963 C   0  0  0  0  0  0  0  0  0  0  0  0
   23.2651    5.5102   32.6930 C   0  0  0  0  0  0  0  0  0  0  0  0
   22.7252    6.7898   32.5299 C   0  0  0  0  0  0  0  0  0  0  0  0
   22.3417    7.2429   31.2616 C   0  0  0  0  0  0  0  0  0  0  0  0
   22.5081    6.3881   30.1618 C   0  0  0  0  0  0  0  0  0  0  0  0
   23.0481    5.1084   30.3292 C   0  0  0  0  0  0  0  0  0  0  0  0
   21.7783    8.6285   31.0630 C   0  0  0  0  0  0  0  0  0  0  0  0
   34.9689    8.1006   32.0984 C   0  0  0  0  0  0  0  0  0  0  0  0
   35.2055    6.9262   32.7277 F   0  0  0  0  0  0  0  0  0  0  0  0
   34.1580    8.8335   32.8871 F   0  0  0  0  0  0  0  0  0  0  0  0
   36.1540    8.7509   32.0057 F   0  0  0  0  0  0  0  0  0  0  0  0
   22.6103    9.4280   30.3388 F   0  0  0  0  0  0  0  0  0  0  0  0
   20.5921    8.6183   30.3914 F   0  0  0  0  0  0  0  0  0  0  0  0
   21.5401    9.2950   32.2276 F   0  0  0  0  0  0  0  0  0  0  0  0
   27.8039    8.8104   32.1969 H   0  0  0  0  0  0  0  0  0  0  0  0
   26.6061    9.3988   31.0387 H   0  0  0  0  0  0  0  0  0  0  0  0
   25.9589    7.1517   30.4013 H   0  0  0  0  0  0  0  0  0  0  0  0
   25.8491    7.3280   32.1467 H   0  0  0  0  0  0  0  0  0  0  0  0
   27.9712    6.1635   32.4800 H   0  0  0  0  0  0  0  0  0  0  0  0
   28.1722    5.9027   29.4389 H   0  0  0  0  0  0  0  0  0  0  0  0
   29.3306    5.3299   30.6282 H   0  0  0  0  0  0  0  0  0  0  0  0
   30.0454    7.4331   29.5967 H   0  0  0  0  0  0  0  0  0  0  0  0
   29.8383    7.6379   31.3380 H   0  0  0  0  0  0  0  0  0  0  0  0
   26.3964    4.5616   30.5204 H   0  0  0  0  0  0  0  0  0  0  0  0
   29.6243   10.0544   30.9399 H   0  0  0  0  0  0  0  0  0  0  0  0
   28.2400   10.6588   30.0428 H   0  0  0  0  0  0  0  0  0  0  0  0
   30.6325    9.2923   28.7065 H   0  0  0  0  0  0  0  0  0  0  0  0
   29.1621    9.8111   27.9102 H   0  0  0  0  0  0  0  0  0  0  0  0
   30.7124   11.5527   27.5349 H   0  0  0  0  0  0  0  0  0  0  0  0
   29.5579   12.1478   28.6896 H   0  0  0  0  0  0  0  0  0  0  0  0
   31.1429   11.8080   30.5562 H   0  0  0  0  0  0  0  0  0  0  0  0
   31.6478   12.9441   29.3346 H   0  0  0  0  0  0  0  0  0  0  0  0
   36.1730   12.7746   26.6309 H   0  0  0  0  0  0  0  0  0  0  0  0
   35.4220   11.4589   24.6663 H   0  0  0  0  0  0  0  0  0  0  0  0
   33.4813    9.9303   24.8410 H   0  0  0  0  0  0  0  0  0  0  0  0
   32.2464    9.6972   26.9724 H   0  0  0  0  0  0  0  0  0  0  0  0
   33.2228   12.1385   32.1720 H   0  0  0  0  0  0  0  0  0  0  0  0
   35.0071   13.7079   32.8993 H   0  0  0  0  0  0  0  0  0  0  0  0
   36.6802   14.5510   31.2789 H   0  0  0  0  0  0  0  0  0  0  0  0
   36.6090   13.8395   28.9024 H   0  0  0  0  0  0  0  0  0  0  0  0
   34.9100    9.5326   29.4922 H   0  0  0  0  0  0  0  0  0  0  0  0
   33.4540    7.2818   30.7966 H   0  0  0  0  0  0  0  0  0  0  0  0
   35.0880    7.2510   30.1196 H   0  0  0  0  0  0  0  0  0  0  0  0
   22.2341    2.2812   31.1216 H   0  0  0  0  0  0  0  0  0  0  0  0
   23.1540    0.0169   31.4405 H   0  0  0  0  0  0  0  0  0  0  0  0
   25.4586   -0.2950   32.3062 H   0  0  0  0  0  0  0  0  0  0  0  0
   26.8592    1.6870   32.8372 H   0  0  0  0  0  0  0  0  0  0  0  0
   23.5627    5.1902   33.6915 H   0  0  0  0  0  0  0  0  0  0  0  0
   22.6153    7.4316   33.4030 H   0  0  0  0  0  0  0  0  0  0  0  0
   22.2199    6.7195   29.1649 H   0  0  0  0  0  0  0  0  0  0  0  0
   23.1708    4.4709   29.4552 H   0  0  0  0  0  0  0  0  0  0  0  0
  1  8  1  0
  8  9  1  0
  9 10  1  0
 10 11  1  0
 11 12  1  0
 12 13  1  0
 12 14  1  0
 14 15  2  0
 15 16  1  0
 16 17  1  0
 17 12  1  0
 16 18  2  0
 18 19  1  0
 19 20  2  0
 20 21  1  0
 21 17  2  0
 14 22  1  0
 22 23  2  0
 23 24  1  0
 24 25  2  0
 25 15  1  0
 13 26  2  0
 13 27  1  0
 27 28  1  0
  7 29  1  0
 29 30  1  0
 29 31  2  0
 30 32  1  0
 32 33  2  0
 33 34  1  0
 34 35  2  0
 35 36  1  0
 36 30  2  0
 32 37  1  0
 37 38  2  0
 38 39  1  0
 39 40  2  0
 40 41  1  0
 41 42  2  0
 42 37  1  0
 40 43  1  0
 28 44  1  0
  1  2  1  0
  2  3  1  0
 44 45  1  0
  3  4  1  0
 44 46  1  0
  4  5  1  0
 44 47  1  0
  5  6  1  0
 43 48  1  0
  6  1  1  0
 43 49  1  0
  4  7  1  0
 43 50  1  0
  2 51  1  0
  2 52  1  0
  3 53  1  0
  3 54  1  0
  4 55  1  0
  5 56  1  0
  5 57  1  0
  6 58  1  0
  6 59  1  0
  7 60  1  0
  8 61  1  0
  8 62  1  0
  9 63  1  0
  9 64  1  0
 10 65  1  0
 10 66  1  0
 11 67  1  0
 11 68  1  0
 18 69  1  0
 19 70  1  0
 20 71  1  0
 21 72  1  0
 22 73  1  0
 23 74  1  0
 24 75  1  0
 25 76  1  0
 27 77  1  0
 28 78  1  0
 28 79  1  0
 33 80  1  0
 34 81  1  0
 35 82  1  0
 36 83  1  0
 38 84  1  0
 39 85  1  0
 41 86  1  0
 42 87  1  0
M  END
> <Uni-Dock RESULT> 
ENERGY=   -4.440  LOWER_BOUND=    3.663  UPPER_BOUND=   12.093
INTER + INTRA:          -4.440
INTER:                  -4.440
INTRA:                   0.000
UNBOUND:                 0.000

$$$$

     RDKit          3D

 87 92  0  0  0  0  0  0  0  0999 V2000
   30.9303   11.1827   27.8144 N   0  0  0  0  0  0  0  0  0  0  0  0
   31.2424   11.0597   29.2503 C   0  0  0  0  0  0  0  0  0  0  0  0
   32.7142   10.7186   29.4688 C   0  0  0  0  0  0  0  0  0  0  0  0
   33.6280   11.7473   28.8027 C   0  0  0  0  0  0  0  0  0  0  0  0
   33.2331   11.9435   27.3420 C   0  0  0  0  0  0  0  0  0  0  0  0
   31.7429   12.2547   27.2136 C   0  0  0  0  0  0  0  0  0  0  0  0
   35.0204   11.3290   28.8978 N   0  0  0  0  0  0  0  0  0  0  0  0
   29.4861   11.4411   27.6432 C   0  0  0  0  0  0  0  0  0  0  0  0
   29.0245   11.2617   26.1884 C   0  0  0  0  0  0  0  0  0  0  0  0
   27.5058   11.3604   26.0286 C   0  0  0  0  0  0  0  0  0  0  0  0
   26.8727   12.7469   26.2257 C   0  0  0  0  0  0  0  0  0  0  0  0
   27.1694   13.8755   25.1934 C   0  0  0  0  0  0  0  0  0  0  0  0
   28.5375   14.5760   25.4100 C   0  0  0  0  0  0  0  0  0  0  0  0
   26.0561   14.9410   25.3681 C   0  0  0  0  0  0  0  0  0  0  0  0
   25.2799   15.0418   24.1956 C   0  0  0  0  0  0  0  0  0  0  0  0
   25.8141   14.1447   23.1958 C   0  0  0  0  0  0  0  0  0  0  0  0
   26.9316   13.4620   23.7285 C   0  0  0  0  0  0  0  0  0  0  0  0
   25.4165   13.9382   21.8837 C   0  0  0  0  0  0  0  0  0  0  0  0
   26.1545   13.0540   21.0928 C   0  0  0  0  0  0  0  0  0  0  0  0
   27.2802   12.3967   21.6120 C   0  0  0  0  0  0  0  0  0  0  0  0
   27.6814   12.6035   22.9332 C   0  0  0  0  0  0  0  0  0  0  0  0
   25.7827   15.7217   26.4848 C   0  0  0  0  0  0  0  0  0  0  0  0
   24.7077   16.6097   26.4202 C   0  0  0  0  0  0  0  0  0  0  0  0
   23.9281   16.7084   25.2568 C   0  0  0  0  0  0  0  0  0  0  0  0
   24.2125   15.9236   24.1346 C   0  0  0  0  0  0  0  0  0  0  0  0
   29.2225   14.4217   26.4194 O   0  0  0  0  0  0  0  0  0  0  0  0
   28.9331   15.4550   24.4157 N   0  0  0  0  0  0  0  0  0  0  0  0
   30.0877   16.3299   24.6155 C   0  0  0  0  0  0  0  0  0  0  0  0
   35.8249   11.6976   29.9517 C   0  0  0  0  0  0  0  0  0  0  0  0
   37.1278   11.0018   29.9906 C   0  0  0  0  0  0  0  0  0  0  0  0
   35.5494   12.5303   30.8032 O   0  0  0  0  0  0  0  0  0  0  0  0
   37.2305    9.6597   30.4111 C   0  0  0  0  0  0  0  0  0  0  0  0
   38.5041    9.0649   30.3711 C   0  0  0  0  0  0  0  0  0  0  0  0
   39.6250    9.7813   29.9372 C   0  0  0  0  0  0  0  0  0  0  0  0
   39.4987   11.1112   29.5387 C   0  0  0  0  0  0  0  0  0  0  0  0
   38.2499   11.7268   29.5681 C   0  0  0  0  0  0  0  0  0  0  0  0
   36.0775    8.8875   30.9034 C   0  0  0  0  0  0  0  0  0  0  0  0
   35.3857    9.2855   32.0581 C   0  0  0  0  0  0  0  0  0  0  0  0
   34.2809    8.5653   32.5231 C   0  0  0  0  0  0  0  0  0  0  0  0
   33.8416    7.4216   31.8447 C   0  0  0  0  0  0  0  0  0  0  0  0
   34.5321    7.0139   30.6937 C   0  0  0  0  0  0  0  0  0  0  0  0
   35.6374    7.7368   30.2321 C   0  0  0  0  0  0  0  0  0  0  0  0
   32.6381    6.6448   32.3186 C   0  0  0  0  0  0  0  0  0  0  0  0
   29.8107   17.5960   25.4324 C   0  0  0  0  0  0  0  0  0  0  0  0
   30.9307   18.3491   25.5325 F   0  0  0  0  0  0  0  0  0  0  0  0
   29.3795   17.3329   26.6821 F   0  0  0  0  0  0  0  0  0  0  0  0
   28.8702   18.3564   24.8218 F   0  0  0  0  0  0  0  0  0  0  0  0
   31.5944    6.7220   31.4465 F   0  0  0  0  0  0  0  0  0  0  0  0
   32.9010    5.3158   32.4695 F   0  0  0  0  0  0  0  0  0  0  0  0
   32.1526    7.0661   33.5203 F   0  0  0  0  0  0  0  0  0  0  0  0
   30.9928   11.9843   29.7871 H   0  0  0  0  0  0  0  0  0  0  0  0
   30.6433   10.2548   29.6937 H   0  0  0  0  0  0  0  0  0  0  0  0
   32.9222    9.7175   29.0669 H   0  0  0  0  0  0  0  0  0  0  0  0
   32.9222   10.6704   30.5439 H   0  0  0  0  0  0  0  0  0  0  0  0
   33.5199   12.7044   29.3286 H   0  0  0  0  0  0  0  0  0  0  0  0
   33.4726   11.0440   26.7599 H   0  0  0  0  0  0  0  0  0  0  0  0
   33.8199   12.7597   26.9040 H   0  0  0  0  0  0  0  0  0  0  0  0
   31.5270   12.3528   26.1455 H   0  0  0  0  0  0  0  0  0  0  0  0
   31.5244   13.2232   27.6814 H   0  0  0  0  0  0  0  0  0  0  0  0
   35.3111   10.5380   28.3364 H   0  0  0  0  0  0  0  0  0  0  0  0
   29.2220   12.4331   28.0253 H   0  0  0  0  0  0  0  0  0  0  0  0
   28.9265   10.7157   28.2483 H   0  0  0  0  0  0  0  0  0  0  0  0
   29.5134   11.9716   25.5177 H   0  0  0  0  0  0  0  0  0  0  0  0
   29.3308   10.2625   25.8508 H   0  0  0  0  0  0  0  0  0  0  0  0
   27.2224   10.9618   25.0488 H   0  0  0  0  0  0  0  0  0  0  0  0
   27.0424   10.6773   26.7538 H   0  0  0  0  0  0  0  0  0  0  0  0
   27.1096   13.1007   27.2375 H   0  0  0  0  0  0  0  0  0  0  0  0
   25.7864   12.5674   26.2362 H   0  0  0  0  0  0  0  0  0  0  0  0
   24.5577   14.4543   21.4669 H   0  0  0  0  0  0  0  0  0  0  0  0
   25.8597   12.8791   20.0603 H   0  0  0  0  0  0  0  0  0  0  0  0
   27.8480   11.7208   20.9759 H   0  0  0  0  0  0  0  0  0  0  0  0
   28.5650   12.1010   23.3134 H   0  0  0  0  0  0  0  0  0  0  0  0
   26.3832   15.6495   27.3874 H   0  0  0  0  0  0  0  0  0  0  0  0
   24.4691   17.2308   27.2812 H   0  0  0  0  0  0  0  0  0  0  0  0
   23.0928   17.4066   25.2291 H   0  0  0  0  0  0  0  0  0  0  0  0
   23.6038   16.0121   23.2409 H   0  0  0  0  0  0  0  0  0  0  0  0
   28.2369   15.7329   23.7301 H   0  0  0  0  0  0  0  0  0  0  0  0
   30.8861   15.7545   25.0971 H   0  0  0  0  0  0  0  0  0  0  0  0
   30.4374   16.6138   23.6174 H   0  0  0  0  0  0  0  0  0  0  0  0
   38.6334    8.0348   30.6993 H   0  0  0  0  0  0  0  0  0  0  0  0
   40.6000    9.3003   29.9208 H   0  0  0  0  0  0  0  0  0  0  0  0
   40.3729   11.6666   29.2085 H   0  0  0  0  0  0  0  0  0  0  0  0
   38.1453   12.7652   29.2596 H   0  0  0  0  0  0  0  0  0  0  0  0
   35.6973   10.1768   32.6028 H   0  0  0  0  0  0  0  0  0  0  0  0
   33.7625    8.9121   33.4159 H   0  0  0  0  0  0  0  0  0  0  0  0
   34.2073    6.1291   30.1475 H   0  0  0  0  0  0  0  0  0  0  0  0
   36.1484    7.3987   29.3322 H   0  0  0  0  0  0  0  0  0  0  0  0
  1  8  1  0
  8  9  1  0
  9 10  1  0
 10 11  1  0
 11 12  1  0
 12 13  1  0
 12 14  1  0
 14 15  2  0
 15 16  1  0
 16 17  1  0
 17 12  1  0
 16 18  2  0
 18 19  1  0
 19 20  2  0
 20 21  1  0
 21 17  2  0
 14 22  1  0
 22 23  2  0
 23 24  1  0
 24 25  2  0
 25 15  1  0
 13 26  2  0
 13 27  1  0
 27 28  1  0
  7 29  1  0
 29 30  1  0
 29 31  2  0
 30 32  1  0
 32 33  2  0
 33 34  1  0
 34 35  2  0
 35 36  1  0
 36 30  2  0
 32 37  1  0
 37 38  2  0
 38 39  1  0
 39 40  2  0
 40 41  1  0
 41 42  2  0
 42 37  1  0
 40 43  1  0
 28 44  1  0
  1  2  1  0
  2  3  1  0
 44 45  1  0
  3  4  1  0
 44 46  1  0
  4  5  1  0
 44 47  1  0
  5  6  1  0
 43 48  1  0
  6  1  1  0
 43 49  1  0
  4  7  1  0
 43 50  1  0
  2 51  1  0
  2 52  1  0
  3 53  1  0
  3 54  1  0
  4 55  1  0
  5 56  1  0
  5 57  1  0
  6 58  1  0
  6 59  1  0
  7 60  1  0
  8 61  1  0
  8 62  1  0
  9 63  1  0
  9 64  1  0
 10 65  1  0
 10 66  1  0
 11 67  1  0
 11 68  1  0
 18 69  1  0
 19 70  1  0
 20 71  1  0
 21 72  1  0
 22 73  1  0
 23 74  1  0
 24 75  1  0
 25 76  1  0
 27 77  1  0
 28 78  1  0
 28 79  1  0
 33 80  1  0
 34 81  1  0
 35 82  1  0
 36 83  1  0
 38 84  1  0
 39 85  1  0
 41 86  1  0
 42 87  1  0
M  END
> <Uni-Dock RESULT> 
ENERGY=   -4.361  LOWER_BOUND=    5.406  UPPER_BOUND=    8.402
INTER + INTRA:          -4.361
INTER:                  -4.361
INTRA:                   0.000
UNBOUND:                 0.000

$$$$

     RDKit          3D

 87 92  0  0  0  0  0  0  0  0999 V2000
   27.8455   11.0457   26.7252 N   0  0  0  0  0  0  0  0  0  0  0  0
   27.2279   11.4967   27.9859 C   0  0  0  0  0  0  0  0  0  0  0  0
   27.0595   10.3372   28.9646 C   0  0  0  0  0  0  0  0  0  0  0  0
   28.3926    9.6395   29.2345 C   0  0  0  0  0  0  0  0  0  0  0  0
   29.0736    9.2662   27.9211 C   0  0  0  0  0  0  0  0  0  0  0  0
   29.1773   10.4759   26.9937 C   0  0  0  0  0  0  0  0  0  0  0  0
   28.1893    8.4519   30.0535 N   0  0  0  0  0  0  0  0  0  0  0  0
   27.9247   12.1788   25.7810 C   0  0  0  0  0  0  0  0  0  0  0  0
   28.2514   11.7293   24.3482 C   0  0  0  0  0  0  0  0  0  0  0  0
   28.1695   12.8707   23.3322 C   0  0  0  0  0  0  0  0  0  0  0  0
   29.2577   13.9532   23.4105 C   0  0  0  0  0  0  0  0  0  0  0  0
   30.7280   13.5852   23.0501 C   0  0  0  0  0  0  0  0  0  0  0  0
   31.4920   12.8708   24.1969 C   0  0  0  0  0  0  0  0  0  0  0  0
   31.4590   14.9198   22.7502 C   0  0  0  0  0  0  0  0  0  0  0  0
   31.8835   14.9598   21.4065 C   0  0  0  0  0  0  0  0  0  0  0  0
   31.5349   13.7134   20.7627 C   0  0  0  0  0  0  0  0  0  0  0  0
   30.8801   12.8733   21.6923 C   0  0  0  0  0  0  0  0  0  0  0  0
   31.7919   13.2776   19.4717 C   0  0  0  0  0  0  0  0  0  0  0  0
   31.4057   11.9835   19.1137 C   0  0  0  0  0  0  0  0  0  0  0  0
   30.7806   11.1390   20.0436 C   0  0  0  0  0  0  0  0  0  0  0  0
   30.5209   11.5767   21.3437 C   0  0  0  0  0  0  0  0  0  0  0  0
   31.6968   15.9814   23.6149 C   0  0  0  0  0  0  0  0  0  0  0  0
   32.3644   17.1008   23.1152 C   0  0  0  0  0  0  0  0  0  0  0  0
   32.7829   17.1475   21.7760 C   0  0  0  0  0  0  0  0  0  0  0  0
   32.5452   16.0730   20.9127 C   0  0  0  0  0  0  0  0  0  0  0  0
   31.0677   12.7996   25.3488 O   0  0  0  0  0  0  0  0  0  0  0  0
   32.7359   12.3576   23.8695 N   0  0  0  0  0  0  0  0  0  0  0  0
   33.6323   11.8627   24.9136 C   0  0  0  0  0  0  0  0  0  0  0  0
   28.2420    8.4929   31.4280 C   0  0  0  0  0  0  0  0  0  0  0  0
   27.7942    7.2492   32.0882 C   0  0  0  0  0  0  0  0  0  0  0  0
   28.6289    9.4381   32.0998 O   0  0  0  0  0  0  0  0  0  0  0  0
   26.4268    6.9151   32.1732 C   0  0  0  0  0  0  0  0  0  0  0  0
   26.0968    5.6892   32.7778 C   0  0  0  0  0  0  0  0  0  0  0  0
   27.0881    4.8394   33.2808 C   0  0  0  0  0  0  0  0  0  0  0  0
   28.4322    5.1990   33.1957 C   0  0  0  0  0  0  0  0  0  0  0  0
   28.7891    6.4074   32.6026 C   0  0  0  0  0  0  0  0  0  0  0  0
   25.3572    7.8006   31.6832 C   0  0  0  0  0  0  0  0  0  0  0  0
   25.1678    9.0754   32.2394 C   0  0  0  0  0  0  0  0  0  0  0  0
   24.1635    9.9272   31.7691 C   0  0  0  0  0  0  0  0  0  0  0  0
   23.3171    9.5219   30.7298 C   0  0  0  0  0  0  0  0  0  0  0  0
   23.4960    8.2466   30.1734 C   0  0  0  0  0  0  0  0  0  0  0  0
   24.5016    7.3971   30.6472 C   0  0  0  0  0  0  0  0  0  0  0  0
   22.2426   10.4358   30.1941 C   0  0  0  0  0  0  0  0  0  0  0  0
   34.4266   12.9430   25.6546 C   0  0  0  0  0  0  0  0  0  0  0  0
   35.2453   12.3813   26.5742 F   0  0  0  0  0  0  0  0  0  0  0  0
   33.6392   13.8311   26.2934 F   0  0  0  0  0  0  0  0  0  0  0  0
   35.2094   13.6316   24.7893 F   0  0  0  0  0  0  0  0  0  0  0  0
   22.4888   10.8316   28.9140 F   0  0  0  0  0  0  0  0  0  0  0  0
   21.0157    9.8422   30.1720 F   0  0  0  0  0  0  0  0  0  0  0  0
   22.0880   11.5814   30.9160 F   0  0  0  0  0  0  0  0  0  0  0  0
   27.8238   12.2919   28.4528 H   0  0  0  0  0  0  0  0  0  0  0  0
   26.2325   11.9119   27.7851 H   0  0  0  0  0  0  0  0  0  0  0  0
   26.3356    9.6172   28.5590 H   0  0  0  0  0  0  0  0  0  0  0  0
   26.6331   10.7104   29.9029 H   0  0  0  0  0  0  0  0  0  0  0  0
   29.0440   10.3297   29.7855 H   0  0  0  0  0  0  0  0  0  0  0  0
   28.5165    8.4645   27.4191 H   0  0  0  0  0  0  0  0  0  0  0  0
   30.0752    8.8674   28.1211 H   0  0  0  0  0  0  0  0  0  0  0  0
   29.6452   10.1300   26.0671 H   0  0  0  0  0  0  0  0  0  0  0  0
   29.8445   11.2267   27.4362 H   0  0  0  0  0  0  0  0  0  0  0  0
   27.7309    7.6586   29.6225 H   0  0  0  0  0  0  0  0  0  0  0  0
   28.6393   12.9294   26.1356 H   0  0  0  0  0  0  0  0  0  0  0  0
   26.9455   12.6740   25.7455 H   0  0  0  0  0  0  0  0  0  0  0  0
   29.2310   11.2503   24.2873 H   0  0  0  0  0  0  0  0  0  0  0  0
   27.5196   10.9660   24.0515 H   0  0  0  0  0  0  0  0  0  0  0  0
   28.1410   12.4492   22.3219 H   0  0  0  0  0  0  0  0  0  0  0  0
   27.1971   13.3672   23.4562 H   0  0  0  0  0  0  0  0  0  0  0  0
   29.2258   14.4119   24.4073 H   0  0  0  0  0  0  0  0  0  0  0  0
   28.9234   14.7462   22.7237 H   0  0  0  0  0  0  0  0  0  0  0  0
   32.2901   13.9164   18.7498 H   0  0  0  0  0  0  0  0  0  0  0  0
   31.5994   11.6221   18.1060 H   0  0  0  0  0  0  0  0  0  0  0  0
   30.4982   10.1307   19.7480 H   0  0  0  0  0  0  0  0  0  0  0  0
   30.0530   10.9045   22.0557 H   0  0  0  0  0  0  0  0  0  0  0  0
   31.3753   15.9502   24.6522 H   0  0  0  0  0  0  0  0  0  0  0  0
   32.5608   17.9479   23.7693 H   0  0  0  0  0  0  0  0  0  0  0  0
   33.3004   18.0317   21.4068 H   0  0  0  0  0  0  0  0  0  0  0  0
   32.8768   16.1210   19.8809 H   0  0  0  0  0  0  0  0  0  0  0  0
   33.1461   12.6474   22.9865 H   0  0  0  0  0  0  0  0  0  0  0  0
   33.0458   11.2838   25.6357 H   0  0  0  0  0  0  0  0  0  0  0  0
   34.3292   11.1751   24.4231 H   0  0  0  0  0  0  0  0  0  0  0  0
   25.0529    5.3960   32.8776 H   0  0  0  0  0  0  0  0  0  0  0  0
   26.8066    3.8991   33.7488 H   0  0  0  0  0  0  0  0  0  0  0  0
   29.1991    4.5392   33.5935 H   0  0  0  0  0  0  0  0  0  0  0  0
   29.8367    6.6943   32.5346 H   0  0  0  0  0  0  0  0  0  0  0  0
   25.8166    9.4236   33.0432 H   0  0  0  0  0  0  0  0  0  0  0  0
   24.0551   10.9137   32.2178 H   0  0  0  0  0  0  0  0  0  0  0  0
   22.8517    7.9102   29.3619 H   0  0  0  0  0  0  0  0  0  0  0  0
   24.6195    6.4159   30.1905 H   0  0  0  0  0  0  0  0  0  0  0  0
  1  8  1  0
  8  9  1  0
  9 10  1  0
 10 11  1  0
 11 12  1  0
 12 13  1  0
 12 14  1  0
 14 15  2  0
 15 16  1  0
 16 17  1  0
 17 12  1  0
 16 18  2  0
 18 19  1  0
 19 20  2  0
 20 21  1  0
 21 17  2  0
 14 22  1  0
 22 23  2  0
 23 24  1  0
 24 25  2  0
 25 15  1  0
 13 26  2  0
 13 27  1  0
 27 28  1  0
  7 29  1  0
 29 30  1  0
 29 31  2  0
 30 32  1  0
 32 33  2  0
 33 34  1  0
 34 35  2  0
 35 36  1  0
 36 30  2  0
 32 37  1  0
 37 38  2  0
 38 39  1  0
 39 40  2  0
 40 41  1  0
 41 42  2  0
 42 37  1  0
 40 43  1  0
 28 44  1  0
  1  2  1  0
  2  3  1  0
 44 45  1  0
  3  4  1  0
 44 46  1  0
  4  5  1  0
 44 47  1  0
  5  6  1  0
 43 48  1  0
  6  1  1  0
 43 49  1  0
  4  7  1  0
 43 50  1  0
  2 51  1  0
  2 52  1  0
  3 53  1  0
  3 54  1  0
  4 55  1  0
  5 56  1  0
  5 57  1  0
  6 58  1  0
  6 59  1  0
  7 60  1  0
  8 61  1  0
  8 62  1  0
  9 63  1  0
  9 64  1  0
 10 65  1  0
 10 66  1  0
 11 67  1  0
 11 68  1  0
 18 69  1  0
 19 70  1  0
 20 71  1  0
 21 72  1  0
 22 73  1  0
 23 74  1  0
 24 75  1  0
 25 76  1  0
 27 77  1  0
 28 78  1  0
 28 79  1  0
 33 80  1  0
 34 81  1  0
 35 82  1  0
 36 83  1  0
 38 84  1  0
 39 85  1  0
 41 86  1  0
 42 87  1  0
M  END
> <Uni-Dock RESULT> 
ENERGY=   -4.287  LOWER_BOUND=    3.794  UPPER_BOUND=   11.624
INTER + INTRA:          -4.287
INTER:                  -4.287
INTRA:                   0.000
UNBOUND:                 0.000

$$$$
