
     RDKit          3D

 87 92  0  0  0  0  0  0  0  0999 V2000
   28.5630   11.7381   26.0572 N   0  0  0  0  0  0  0  0  0  0  0  0
   29.9829   12.0829   25.8877 C   0  0  0  0  0  0  0  0  0  0  0  0
   30.4785   11.7535   24.4847 C   0  0  0  0  0  0  0  0  0  0  0  0
   29.7571   12.6217   23.4464 C   0  0  0  0  0  0  0  0  0  0  0  0
   28.3403   13.0012   23.8962 C   0  0  0  0  0  0  0  0  0  0  0  0
   27.7545   11.9609   24.8486 C   0  0  0  0  0  0  0  0  0  0  0  0
   29.7440   11.9622   22.1460 N   0  0  0  0  0  0  0  0  0  0  0  0
   27.9977   12.3665   27.2587 C   0  0  0  0  0  0  0  0  0  0  0  0
   27.2208   11.3668   28.1298 C   0  0  0  0  0  0  0  0  0  0  0  0
   25.9778   10.7713   27.4711 C   0  0  0  0  0  0  0  0  0  0  0  0
   25.2360    9.7176   28.3117 C   0  0  0  0  0  0  0  0  0  0  0  0
   24.5894   10.1275   29.6664 C   0  0  0  0  0  0  0  0  0  0  0  0
   25.6008   10.5091   30.7888 C   0  0  0  0  0  0  0  0  0  0  0  0
   23.7088    8.9404   30.1486 C   0  0  0  0  0  0  0  0  0  0  0  0
   22.3520    9.3266   30.1968 C   0  0  0  0  0  0  0  0  0  0  0  0
   22.2316   10.7072   29.7888 C   0  0  0  0  0  0  0  0  0  0  0  0
   23.5112   11.2183   29.4854 C   0  0  0  0  0  0  0  0  0  0  0  0
   21.1041   11.5107   29.6952 C   0  0  0  0  0  0  0  0  0  0  0  0
   21.2610   12.8443   29.3108 C   0  0  0  0  0  0  0  0  0  0  0  0
   22.5345   13.3630   29.0389 C   0  0  0  0  0  0  0  0  0  0  0  0
   23.6691   12.5536   29.1320 C   0  0  0  0  0  0  0  0  0  0  0  0
   24.0851    7.6424   30.4796 C   0  0  0  0  0  0  0  0  0  0  0  0
   23.0960    6.7404   30.8800 C   0  0  0  0  0  0  0  0  0  0  0  0
   21.7510    7.1300   30.9381 C   0  0  0  0  0  0  0  0  0  0  0  0
   21.3714    8.4289   30.5930 C   0  0  0  0  0  0  0  0  0  0  0  0
   25.4702   11.4868   31.5247 O   0  0  0  0  0  0  0  0  0  0  0  0
   26.7015    9.6816   30.9297 N   0  0  0  0  0  0  0  0  0  0  0  0
   27.6226    9.8558   32.0557 C   0  0  0  0  0  0  0  0  0  0  0  0
   30.8617   11.9473   21.3362 C   0  0  0  0  0  0  0  0  0  0  0  0
   30.7088   11.1633   20.0886 C   0  0  0  0  0  0  0  0  0  0  0  0
   31.9173   12.5071   21.5985 O   0  0  0  0  0  0  0  0  0  0  0  0
   30.8572   11.7719   18.8276 C   0  0  0  0  0  0  0  0  0  0  0  0
   30.7179   10.9605   17.6871 C   0  0  0  0  0  0  0  0  0  0  0  0
   30.4414    9.5946   17.8001 C   0  0  0  0  0  0  0  0  0  0  0  0
   30.3004    9.0102   19.0566 C   0  0  0  0  0  0  0  0  0  0  0  0
   30.4346    9.7912   20.2031 C   0  0  0  0  0  0  0  0  0  0  0  0
   31.1215   13.2067   18.6610 C   0  0  0  0  0  0  0  0  0  0  0  0
   32.4183   13.6689   18.3968 C   0  0  0  0  0  0  0  0  0  0  0  0
   32.6749   15.0345   18.2452 C   0  0  0  0  0  0  0  0  0  0  0  0
   31.6378   15.9709   18.3588 C   0  0  0  0  0  0  0  0  0  0  0  0
   30.3367   15.5106   18.6076 C   0  0  0  0  0  0  0  0  0  0  0  0
   30.0833   14.1441   18.7597 C   0  0  0  0  0  0  0  0  0  0  0  0
   31.9098   17.4440   18.1843 C   0  0  0  0  0  0  0  0  0  0  0  0
   27.1995    9.1509   33.3470 C   0  0  0  0  0  0  0  0  0  0  0  0
   26.0369    9.6118   33.8442 F   0  0  0  0  0  0  0  0  0  0  0  0
   27.0557    7.8206   33.1240 F   0  0  0  0  0  0  0  0  0  0  0  0
   28.1471    9.2963   34.3015 F   0  0  0  0  0  0  0  0  0  0  0  0
   33.1738   17.8062   18.5405 F   0  0  0  0  0  0  0  0  0  0  0  0
   31.7588   17.8462   16.8915 F   0  0  0  0  0  0  0  0  0  0  0  0
   31.0775   18.2332   18.9205 F   0  0  0  0  0  0  0  0  0  0  0  0
   30.1568   13.1506   26.0793 H   0  0  0  0  0  0  0  0  0  0  0  0
   30.5744   11.5203   26.6195 H   0  0  0  0  0  0  0  0  0  0  0  0
   30.3198   10.6859   24.2806 H   0  0  0  0  0  0  0  0  0  0  0  0
   31.5605   11.9190   24.4196 H   0  0  0  0  0  0  0  0  0  0  0  0
   30.3231   13.5538   23.3195 H   0  0  0  0  0  0  0  0  0  0  0  0
   27.6769   13.1384   23.0342 H   0  0  0  0  0  0  0  0  0  0  0  0
   28.3750   13.9680   24.4155 H   0  0  0  0  0  0  0  0  0  0  0  0
   27.6806   11.0038   24.3170 H   0  0  0  0  0  0  0  0  0  0  0  0
   26.7221   12.2368   25.0936 H   0  0  0  0  0  0  0  0  0  0  0  0
   28.9440   11.3994   21.8885 H   0  0  0  0  0  0  0  0  0  0  0  0
   27.3712   13.2329   27.0108 H   0  0  0  0  0  0  0  0  0  0  0  0
   28.8005   12.7611   27.8964 H   0  0  0  0  0  0  0  0  0  0  0  0
   27.8963   10.5571   28.4335 H   0  0  0  0  0  0  0  0  0  0  0  0
   26.9329   11.9016   29.0400 H   0  0  0  0  0  0  0  0  0  0  0  0
   25.2941   11.5679   27.1638 H   0  0  0  0  0  0  0  0  0  0  0  0
   26.2781   10.2662   26.5447 H   0  0  0  0  0  0  0  0  0  0  0  0
   25.9243    8.8763   28.4657 H   0  0  0  0  0  0  0  0  0  0  0  0
   24.4455    9.3162   27.6594 H   0  0  0  0  0  0  0  0  0  0  0  0
   20.1172   11.1250   29.9271 H   0  0  0  0  0  0  0  0  0  0  0  0
   20.3901   13.4916   29.2408 H   0  0  0  0  0  0  0  0  0  0  0  0
   22.6409   14.4104   28.7668 H   0  0  0  0  0  0  0  0  0  0  0  0
   24.6507   12.9801   28.9553 H   0  0  0  0  0  0  0  0  0  0  0  0
   25.1143    7.3083   30.4343 H   0  0  0  0  0  0  0  0  0  0  0  0
   23.3702    5.7231   31.1514 H   0  0  0  0  0  0  0  0  0  0  0  0
   20.9962    6.4140   31.2549 H   0  0  0  0  0  0  0  0  0  0  0  0
   20.3274    8.7201   30.6397 H   0  0  0  0  0  0  0  0  0  0  0  0
   26.7170    8.7940   30.4479 H   0  0  0  0  0  0  0  0  0  0  0  0
   27.7557   10.9251   32.2495 H   0  0  0  0  0  0  0  0  0  0  0  0
   28.5868    9.4553   31.7264 H   0  0  0  0  0  0  0  0  0  0  0  0
   30.8228   11.3975   16.6951 H   0  0  0  0  0  0  0  0  0  0  0  0
   30.3418    8.9873   16.9032 H   0  0  0  0  0  0  0  0  0  0  0  0
   30.0971    7.9455   19.1421 H   0  0  0  0  0  0  0  0  0  0  0  0
   30.3506    9.3270   21.1830 H   0  0  0  0  0  0  0  0  0  0  0  0
   33.2434   12.9621   18.3280 H   0  0  0  0  0  0  0  0  0  0  0  0
   33.6947   15.3634   18.0508 H   0  0  0  0  0  0  0  0  0  0  0  0
   29.5130   16.2176   18.6941 H   0  0  0  0  0  0  0  0  0  0  0  0
   29.0667   13.8133   18.9619 H   0  0  0  0  0  0  0  0  0  0  0  0
  1  8  1  0
  8  9  1  0
  9 10  1  0
 10 11  1  0
 11 12  1  0
 12 13  1  0
 12 14  1  0
 14 15  2  0
 15 16  1  0
 16 17  1  0
 17 12  1  0
 16 18  2  0
 18 19  1  0
 19 20  2  0
 20 21  1  0
 21 17  2  0
 14 22  1  0
 22 23  2  0
 23 24  1  0
 24 25  2  0
 25 15  1  0
 13 26  2  0
 13 27  1  0
 27 28  1  0
  7 29  1  0
 29 30  1  0
 29 31  2  0
 30 32  1  0
 32 33  2  0
 33 34  1  0
 34 35  2  0
 35 36  1  0
 36 30  2  0
 32 37  1  0
 37 38  2  0
 38 39  1  0
 39 40  2  0
 40 41  1  0
 41 42  2  0
 42 37  1  0
 40 43  1  0
 28 44  1  0
  1  2  1  0
  2  3  1  0
 44 45  1  0
  3  4  1  0
 44 46  1  0
  4  5  1  0
 44 47  1  0
  5  6  1  0
 43 48  1  0
  6  1  1  0
 43 49  1  0
  4  7  1  0
 43 50  1  0
  2 51  1  0
  2 52  1  0
  3 53  1  0
  3 54  1  0
  4 55  1  0
  5 56  1  0
  5 57  1  0
  6 58  1  0
  6 59  1  0
  7 60  1  0
  8 61  1  0
  8 62  1  0
  9 63  1  0
  9 64  1  0
 10 65  1  0
 10 66  1  0
 11 67  1  0
 11 68  1  0
 18 69  1  0
 19 70  1  0
 20 71  1  0
 21 72  1  0
 22 73  1  0
 23 74  1  0
 24 75  1  0
 25 76  1  0
 27 77  1  0
 28 78  1  0
 28 79  1  0
 33 80  1  0
 34 81  1  0
 35 82  1  0
 36 83  1  0
 38 84  1  0
 39 85  1  0
 41 86  1  0
 42 87  1  0
M  END
> <Uni-Dock RESULT> 
ENERGY=   -5.572  LOWER_BOUND=    0.000  UPPER_BOUND=    0.000
INTER + INTRA:          -5.572
INTER:                  -5.572
INTRA:                   0.000
UNBOUND:                 0.000

$$$$

     RDKit          3D

 87 92  0  0  0  0  0  0  0  0999 V2000
   28.5630   11.7381   26.0572 N   0  0  0  0  0  0  0  0  0  0  0  0
   29.9829   12.0829   25.8877 C   0  0  0  0  0  0  0  0  0  0  0  0
   30.4785   11.7535   24.4847 C   0  0  0  0  0  0  0  0  0  0  0  0
   29.7571   12.6217   23.4464 C   0  0  0  0  0  0  0  0  0  0  0  0
   28.3403   13.0012   23.8962 C   0  0  0  0  0  0  0  0  0  0  0  0
   27.7545   11.9610   24.8486 C   0  0  0  0  0  0  0  0  0  0  0  0
   29.7440   11.9622   22.1460 N   0  0  0  0  0  0  0  0  0  0  0  0
   27.9977   12.3665   27.2587 C   0  0  0  0  0  0  0  0  0  0  0  0
   27.2208   11.3668   28.1298 C   0  0  0  0  0  0  0  0  0  0  0  0
   25.9778   10.7713   27.4711 C   0  0  0  0  0  0  0  0  0  0  0  0
   25.2360    9.7176   28.3117 C   0  0  0  0  0  0  0  0  0  0  0  0
   24.5894   10.1275   29.6664 C   0  0  0  0  0  0  0  0  0  0  0  0
   25.6008   10.5091   30.7888 C   0  0  0  0  0  0  0  0  0  0  0  0
   23.7088    8.9404   30.1486 C   0  0  0  0  0  0  0  0  0  0  0  0
   22.3520    9.3266   30.1968 C   0  0  0  0  0  0  0  0  0  0  0  0
   22.2316   10.7072   29.7888 C   0  0  0  0  0  0  0  0  0  0  0  0
   23.5112   11.2183   29.4854 C   0  0  0  0  0  0  0  0  0  0  0  0
   21.1041   11.5107   29.6952 C   0  0  0  0  0  0  0  0  0  0  0  0
   21.2610   12.8443   29.3108 C   0  0  0  0  0  0  0  0  0  0  0  0
   22.5345   13.3630   29.0389 C   0  0  0  0  0  0  0  0  0  0  0  0
   23.6691   12.5536   29.1320 C   0  0  0  0  0  0  0  0  0  0  0  0
   24.0851    7.6424   30.4796 C   0  0  0  0  0  0  0  0  0  0  0  0
   23.0960    6.7404   30.8800 C   0  0  0  0  0  0  0  0  0  0  0  0
   21.7510    7.1300   30.9381 C   0  0  0  0  0  0  0  0  0  0  0  0
   21.3714    8.4289   30.5930 C   0  0  0  0  0  0  0  0  0  0  0  0
   25.4702   11.4868   31.5247 O   0  0  0  0  0  0  0  0  0  0  0  0
   26.7016    9.6816   30.9297 N   0  0  0  0  0  0  0  0  0  0  0  0
   27.6226    9.8558   32.0557 C   0  0  0  0  0  0  0  0  0  0  0  0
   30.8617   11.9473   21.3362 C   0  0  0  0  0  0  0  0  0  0  0  0
   30.7088   11.1633   20.0886 C   0  0  0  0  0  0  0  0  0  0  0  0
   31.9173   12.5072   21.5984 O   0  0  0  0  0  0  0  0  0  0  0  0
   30.8572   11.7719   18.8276 C   0  0  0  0  0  0  0  0  0  0  0  0
   30.7179   10.9604   17.6871 C   0  0  0  0  0  0  0  0  0  0  0  0
   30.4414    9.5946   17.8001 C   0  0  0  0  0  0  0  0  0  0  0  0
   30.3004    9.0102   19.0566 C   0  0  0  0  0  0  0  0  0  0  0  0
   30.4346    9.7912   20.2031 C   0  0  0  0  0  0  0  0  0  0  0  0
   31.1215   13.2067   18.6609 C   0  0  0  0  0  0  0  0  0  0  0  0
   32.4183   13.6689   18.3968 C   0  0  0  0  0  0  0  0  0  0  0  0
   32.6749   15.0345   18.2451 C   0  0  0  0  0  0  0  0  0  0  0  0
   31.6378   15.9709   18.3587 C   0  0  0  0  0  0  0  0  0  0  0  0
   30.3367   15.5106   18.6076 C   0  0  0  0  0  0  0  0  0  0  0  0
   30.0832   14.1441   18.7597 C   0  0  0  0  0  0  0  0  0  0  0  0
   31.9098   17.4440   18.1842 C   0  0  0  0  0  0  0  0  0  0  0  0
   27.1995    9.1509   33.3470 C   0  0  0  0  0  0  0  0  0  0  0  0
   26.0369    9.6118   33.8442 F   0  0  0  0  0  0  0  0  0  0  0  0
   27.0557    7.8206   33.1240 F   0  0  0  0  0  0  0  0  0  0  0  0
   28.1471    9.2963   34.3015 F   0  0  0  0  0  0  0  0  0  0  0  0
   33.1737   17.8062   18.5405 F   0  0  0  0  0  0  0  0  0  0  0  0
   31.7588   17.8462   16.8915 F   0  0  0  0  0  0  0  0  0  0  0  0
   31.0774   18.2332   18.9205 F   0  0  0  0  0  0  0  0  0  0  0  0
   30.1568   13.1506   26.0793 H   0  0  0  0  0  0  0  0  0  0  0  0
   30.5744   11.5203   26.6195 H   0  0  0  0  0  0  0  0  0  0  0  0
   30.3198   10.6860   24.2806 H   0  0  0  0  0  0  0  0  0  0  0  0
   31.5605   11.9191   24.4196 H   0  0  0  0  0  0  0  0  0  0  0  0
   30.3231   13.5538   23.3195 H   0  0  0  0  0  0  0  0  0  0  0  0
   27.6769   13.1384   23.0342 H   0  0  0  0  0  0  0  0  0  0  0  0
   28.3750   13.9680   24.4155 H   0  0  0  0  0  0  0  0  0  0  0  0
   27.6806   11.0038   24.3170 H   0  0  0  0  0  0  0  0  0  0  0  0
   26.7221   12.2368   25.0936 H   0  0  0  0  0  0  0  0  0  0  0  0
   28.9440   11.3994   21.8885 H   0  0  0  0  0  0  0  0  0  0  0  0
   27.3712   13.2329   27.0108 H   0  0  0  0  0  0  0  0  0  0  0  0
   28.8005   12.7611   27.8964 H   0  0  0  0  0  0  0  0  0  0  0  0
   27.8963   10.5571   28.4335 H   0  0  0  0  0  0  0  0  0  0  0  0
   26.9329   11.9016   29.0400 H   0  0  0  0  0  0  0  0  0  0  0  0
   25.2941   11.5679   27.1638 H   0  0  0  0  0  0  0  0  0  0  0  0
   26.2781   10.2662   26.5447 H   0  0  0  0  0  0  0  0  0  0  0  0
   25.9244    8.8763   28.4657 H   0  0  0  0  0  0  0  0  0  0  0  0
   24.4455    9.3162   27.6594 H   0  0  0  0  0  0  0  0  0  0  0  0
   20.1173   11.1250   29.9271 H   0  0  0  0  0  0  0  0  0  0  0  0
   20.3901   13.4916   29.2408 H   0  0  0  0  0  0  0  0  0  0  0  0
   22.6409   14.4104   28.7668 H   0  0  0  0  0  0  0  0  0  0  0  0
   24.6507   12.9801   28.9553 H   0  0  0  0  0  0  0  0  0  0  0  0
   25.1143    7.3083   30.4343 H   0  0  0  0  0  0  0  0  0  0  0  0
   23.3702    5.7231   31.1514 H   0  0  0  0  0  0  0  0  0  0  0  0
   20.9962    6.4140   31.2549 H   0  0  0  0  0  0  0  0  0  0  0  0
   20.3274    8.7201   30.6397 H   0  0  0  0  0  0  0  0  0  0  0  0
   26.7170    8.7940   30.4479 H   0  0  0  0  0  0  0  0  0  0  0  0
   27.7557   10.9251   32.2495 H   0  0  0  0  0  0  0  0  0  0  0  0
   28.5869    9.4553   31.7264 H   0  0  0  0  0  0  0  0  0  0  0  0
   30.8228   11.3975   16.6951 H   0  0  0  0  0  0  0  0  0  0  0  0
   30.3418    8.9873   16.9033 H   0  0  0  0  0  0  0  0  0  0  0  0
   30.0971    7.9455   19.1421 H   0  0  0  0  0  0  0  0  0  0  0  0
   30.3506    9.3270   21.1830 H   0  0  0  0  0  0  0  0  0  0  0  0
   33.2434   12.9621   18.3280 H   0  0  0  0  0  0  0  0  0  0  0  0
   33.6947   15.3634   18.0508 H   0  0  0  0  0  0  0  0  0  0  0  0
   29.5129   16.2176   18.6941 H   0  0  0  0  0  0  0  0  0  0  0  0
   29.0667   13.8133   18.9619 H   0  0  0  0  0  0  0  0  0  0  0  0
  1  8  1  0
  8  9  1  0
  9 10  1  0
 10 11  1  0
 11 12  1  0
 12 13  1  0
 12 14  1  0
 14 15  2  0
 15 16  1  0
 16 17  1  0
 17 12  1  0
 16 18  2  0
 18 19  1  0
 19 20  2  0
 20 21  1  0
 21 17  2  0
 14 22  1  0
 22 23  2  0
 23 24  1  0
 24 25  2  0
 25 15  1  0
 13 26  2  0
 13 27  1  0
 27 28  1  0
  7 29  1  0
 29 30  1  0
 29 31  2  0
 30 32  1  0
 32 33  2  0
 33 34  1  0
 34 35  2  0
 35 36  1  0
 36 30  2  0
 32 37  1  0
 37 38  2  0
 38 39  1  0
 39 40  2  0
 40 41  1  0
 41 42  2  0
 42 37  1  0
 40 43  1  0
 28 44  1  0
  1  2  1  0
  2  3  1  0
 44 45  1  0
  3  4  1  0
 44 46  1  0
  4  5  1  0
 44 47  1  0
  5  6  1  0
 43 48  1  0
  6  1  1  0
 43 49  1  0
  4  7  1  0
 43 50  1  0
  2 51  1  0
  2 52  1  0
  3 53  1  0
  3 54  1  0
  4 55  1  0
  5 56  1  0
  5 57  1  0
  6 58  1  0
  6 59  1  0
  7 60  1  0
  8 61  1  0
  8 62  1  0
  9 63  1  0
  9 64  1  0
 10 65  1  0
 10 66  1  0
 11 67  1  0
 11 68  1  0
 18 69  1  0
 19 70  1  0
 20 71  1  0
 21 72  1  0
 22 73  1  0
 23 74  1  0
 24 75  1  0
 25 76  1  0
 27 77  1  0
 28 78  1  0
 28 79  1  0
 33 80  1  0
 34 81  1  0
 35 82  1  0
 36 83  1  0
 38 84  1  0
 39 85  1  0
 41 86  1  0
 42 87  1  0
M  END
> <Uni-Dock RESULT> 
ENERGY=   -5.572  LOWER_BOUND=    0.000  UPPER_BOUND=    0.000
INTER + INTRA:          -5.572
INTER:                  -5.572
INTRA:                   0.000
UNBOUND:                 0.000

$$$$

     RDKit          3D

 87 92  0  0  0  0  0  0  0  0999 V2000
   28.5632   11.7379   26.0573 N   0  0  0  0  0  0  0  0  0  0  0  0
   29.9831   12.0828   25.8877 C   0  0  0  0  0  0  0  0  0  0  0  0
   30.4786   11.7534   24.4847 C   0  0  0  0  0  0  0  0  0  0  0  0
   29.7572   12.6216   23.4464 C   0  0  0  0  0  0  0  0  0  0  0  0
   28.3404   13.0011   23.8963 C   0  0  0  0  0  0  0  0  0  0  0  0
   27.7546   11.9607   24.8486 C   0  0  0  0  0  0  0  0  0  0  0  0
   29.7441   11.9621   22.1460 N   0  0  0  0  0  0  0  0  0  0  0  0
   27.9979   12.3663   27.2588 C   0  0  0  0  0  0  0  0  0  0  0  0
   27.2211   11.3665   28.1299 C   0  0  0  0  0  0  0  0  0  0  0  0
   25.9781   10.7709   27.4713 C   0  0  0  0  0  0  0  0  0  0  0  0
   25.2363    9.7172   28.3118 C   0  0  0  0  0  0  0  0  0  0  0  0
   24.5898   10.1270   29.6665 C   0  0  0  0  0  0  0  0  0  0  0  0
   25.6012   10.5087   30.7889 C   0  0  0  0  0  0  0  0  0  0  0  0
   23.7093    8.9399   30.1488 C   0  0  0  0  0  0  0  0  0  0  0  0
   22.3524    9.3260   30.1970 C   0  0  0  0  0  0  0  0  0  0  0  0
   22.2319   10.7067   29.7891 C   0  0  0  0  0  0  0  0  0  0  0  0
   23.5115   11.2179   29.4856 C   0  0  0  0  0  0  0  0  0  0  0  0
   21.1045   11.5101   29.6955 C   0  0  0  0  0  0  0  0  0  0  0  0
   21.2613   12.8438   29.3112 C   0  0  0  0  0  0  0  0  0  0  0  0
   22.5347   13.3625   29.0392 C   0  0  0  0  0  0  0  0  0  0  0  0
   23.6694   12.5532   29.1323 C   0  0  0  0  0  0  0  0  0  0  0  0
   24.0856    7.6419   30.4797 C   0  0  0  0  0  0  0  0  0  0  0  0
   23.0966    6.7398   30.8802 C   0  0  0  0  0  0  0  0  0  0  0  0
   21.7515    7.1294   30.9383 C   0  0  0  0  0  0  0  0  0  0  0  0
   21.3719    8.4283   30.5933 C   0  0  0  0  0  0  0  0  0  0  0  0
   25.4706   11.4864   31.5249 O   0  0  0  0  0  0  0  0  0  0  0  0
   26.7020    9.6812   30.9298 N   0  0  0  0  0  0  0  0  0  0  0  0
   27.6231    9.8554   32.0557 C   0  0  0  0  0  0  0  0  0  0  0  0
   30.8617   11.9473   21.3362 C   0  0  0  0  0  0  0  0  0  0  0  0
   30.7088   11.1633   20.0886 C   0  0  0  0  0  0  0  0  0  0  0  0
   31.9173   12.5072   21.5984 O   0  0  0  0  0  0  0  0  0  0  0  0
   30.8571   11.7719   18.8276 C   0  0  0  0  0  0  0  0  0  0  0  0
   30.7179   10.9605   17.6870 C   0  0  0  0  0  0  0  0  0  0  0  0
   30.4414    9.5946   17.8000 C   0  0  0  0  0  0  0  0  0  0  0  0
   30.3005    9.0102   19.0565 C   0  0  0  0  0  0  0  0  0  0  0  0
   30.4347    9.7912   20.2030 C   0  0  0  0  0  0  0  0  0  0  0  0
   31.1214   13.2067   18.6609 C   0  0  0  0  0  0  0  0  0  0  0  0
   32.4182   13.6690   18.3967 C   0  0  0  0  0  0  0  0  0  0  0  0
   32.6747   15.0346   18.2451 C   0  0  0  0  0  0  0  0  0  0  0  0
   31.6376   15.9709   18.3588 C   0  0  0  0  0  0  0  0  0  0  0  0
   30.3365   15.5106   18.6077 C   0  0  0  0  0  0  0  0  0  0  0  0
   30.0831   14.1441   18.7597 C   0  0  0  0  0  0  0  0  0  0  0  0
   31.9095   17.4441   18.1843 C   0  0  0  0  0  0  0  0  0  0  0  0
   27.2001    9.1505   33.3470 C   0  0  0  0  0  0  0  0  0  0  0  0
   26.0375    9.6113   33.8443 F   0  0  0  0  0  0  0  0  0  0  0  0
   27.0563    7.8202   33.1240 F   0  0  0  0  0  0  0  0  0  0  0  0
   28.1477    9.2959   34.3015 F   0  0  0  0  0  0  0  0  0  0  0  0
   33.1735   17.8063   18.5405 F   0  0  0  0  0  0  0  0  0  0  0  0
   31.7584   17.8463   16.8916 F   0  0  0  0  0  0  0  0  0  0  0  0
   31.0771   18.2332   18.9206 F   0  0  0  0  0  0  0  0  0  0  0  0
   30.1569   13.1504   26.0793 H   0  0  0  0  0  0  0  0  0  0  0  0
   30.5746   11.5202   26.6195 H   0  0  0  0  0  0  0  0  0  0  0  0
   30.3200   10.6858   24.2805 H   0  0  0  0  0  0  0  0  0  0  0  0
   31.5606   11.9190   24.4195 H   0  0  0  0  0  0  0  0  0  0  0  0
   30.3231   13.5537   23.3195 H   0  0  0  0  0  0  0  0  0  0  0  0
   27.6769   13.1382   23.0343 H   0  0  0  0  0  0  0  0  0  0  0  0
   28.3750   13.9678   24.4156 H   0  0  0  0  0  0  0  0  0  0  0  0
   27.6808   11.0036   24.3171 H   0  0  0  0  0  0  0  0  0  0  0  0
   26.7222   12.2366   25.0937 H   0  0  0  0  0  0  0  0  0  0  0  0
   28.9441   11.3993   21.8885 H   0  0  0  0  0  0  0  0  0  0  0  0
   27.3713   13.2326   27.0109 H   0  0  0  0  0  0  0  0  0  0  0  0
   28.8007   12.7609   27.8965 H   0  0  0  0  0  0  0  0  0  0  0  0
   27.8966   10.5568   28.4336 H   0  0  0  0  0  0  0  0  0  0  0  0
   26.9332   11.9012   29.0401 H   0  0  0  0  0  0  0  0  0  0  0  0
   25.2943   11.5675   27.1640 H   0  0  0  0  0  0  0  0  0  0  0  0
   26.2783   10.2659   26.5448 H   0  0  0  0  0  0  0  0  0  0  0  0
   25.9247    8.8760   28.4658 H   0  0  0  0  0  0  0  0  0  0  0  0
   24.4458    9.3158   27.6595 H   0  0  0  0  0  0  0  0  0  0  0  0
   20.1176   11.1244   29.9274 H   0  0  0  0  0  0  0  0  0  0  0  0
   20.3903   13.4910   29.2412 H   0  0  0  0  0  0  0  0  0  0  0  0
   22.6411   14.4099   28.7671 H   0  0  0  0  0  0  0  0  0  0  0  0
   24.6509   12.9797   28.9555 H   0  0  0  0  0  0  0  0  0  0  0  0
   25.1148    7.3079   30.4344 H   0  0  0  0  0  0  0  0  0  0  0  0
   23.3708    5.7226   31.1515 H   0  0  0  0  0  0  0  0  0  0  0  0
   20.9968    6.4133   31.2551 H   0  0  0  0  0  0  0  0  0  0  0  0
   20.3279    8.7195   30.6400 H   0  0  0  0  0  0  0  0  0  0  0  0
   26.7175    8.7936   30.4480 H   0  0  0  0  0  0  0  0  0  0  0  0
   27.7562   10.9247   32.2496 H   0  0  0  0  0  0  0  0  0  0  0  0
   28.5873    9.4550   31.7264 H   0  0  0  0  0  0  0  0  0  0  0  0
   30.8227   11.3975   16.6950 H   0  0  0  0  0  0  0  0  0  0  0  0
   30.3417    8.9874   16.9032 H   0  0  0  0  0  0  0  0  0  0  0  0
   30.0972    7.9455   19.1420 H   0  0  0  0  0  0  0  0  0  0  0  0
   30.3507    9.3270   21.1830 H   0  0  0  0  0  0  0  0  0  0  0  0
   33.2433   12.9622   18.3279 H   0  0  0  0  0  0  0  0  0  0  0  0
   33.6944   15.3636   18.0507 H   0  0  0  0  0  0  0  0  0  0  0  0
   29.5127   16.2176   18.6942 H   0  0  0  0  0  0  0  0  0  0  0  0
   29.0665   13.8132   18.9620 H   0  0  0  0  0  0  0  0  0  0  0  0
  1  8  1  0
  8  9  1  0
  9 10  1  0
 10 11  1  0
 11 12  1  0
 12 13  1  0
 12 14  1  0
 14 15  2  0
 15 16  1  0
 16 17  1  0
 17 12  1  0
 16 18  2  0
 18 19  1  0
 19 20  2  0
 20 21  1  0
 21 17  2  0
 14 22  1  0
 22 23  2  0
 23 24  1  0
 24 25  2  0
 25 15  1  0
 13 26  2  0
 13 27  1  0
 27 28  1  0
  7 29  1  0
 29 30  1  0
 29 31  2  0
 30 32  1  0
 32 33  2  0
 33 34  1  0
 34 35  2  0
 35 36  1  0
 36 30  2  0
 32 37  1  0
 37 38  2  0
 38 39  1  0
 39 40  2  0
 40 41  1  0
 41 42  2  0
 42 37  1  0
 40 43  1  0
 28 44  1  0
  1  2  1  0
  2  3  1  0
 44 45  1  0
  3  4  1  0
 44 46  1  0
  4  5  1  0
 44 47  1  0
  5  6  1  0
 43 48  1  0
  6  1  1  0
 43 49  1  0
  4  7  1  0
 43 50  1  0
  2 51  1  0
  2 52  1  0
  3 53  1  0
  3 54  1  0
  4 55  1  0
  5 56  1  0
  5 57  1  0
  6 58  1  0
  6 59  1  0
  7 60  1  0
  8 61  1  0
  8 62  1  0
  9 63  1  0
  9 64  1  0
 10 65  1  0
 10 66  1  0
 11 67  1  0
 11 68  1  0
 18 69  1  0
 19 70  1  0
 20 71  1  0
 21 72  1  0
 22 73  1  0
 23 74  1  0
 24 75  1  0
 25 76  1  0
 27 77  1  0
 28 78  1  0
 28 79  1  0
 33 80  1  0
 34 81  1  0
 35 82  1  0
 36 83  1  0
 38 84  1  0
 39 85  1  0
 41 86  1  0
 42 87  1  0
M  END
> <Uni-Dock RESULT> 
ENERGY=   -5.572  LOWER_BOUND=    0.000  UPPER_BOUND=    0.000
INTER + INTRA:          -5.572
INTER:                  -5.572
INTRA:                   0.000
UNBOUND:                 0.000

$$$$

     RDKit          3D

 87 92  0  0  0  0  0  0  0  0999 V2000
   29.8401    9.8494   28.4597 N   0  0  0  0  0  0  0  0  0  0  0  0
   30.4590    9.7501   29.7904 C   0  0  0  0  0  0  0  0  0  0  0  0
   30.0090    8.4949   30.5282 C   0  0  0  0  0  0  0  0  0  0  0  0
   30.4986    7.2403   29.7945 C   0  0  0  0  0  0  0  0  0  0  0  0
   30.6239    7.4684   28.2826 C   0  0  0  0  0  0  0  0  0  0  0  0
   29.6617    8.5493   27.7947 C   0  0  0  0  0  0  0  0  0  0  0  0
   29.6361    6.1026   30.0916 N   0  0  0  0  0  0  0  0  0  0  0  0
   30.5260   10.8417   27.6212 C   0  0  0  0  0  0  0  0  0  0  0  0
   29.5456   11.8172   26.9509 C   0  0  0  0  0  0  0  0  0  0  0  0
   28.5813   11.1757   25.9549 C   0  0  0  0  0  0  0  0  0  0  0  0
   27.5517   12.1354   25.3336 C   0  0  0  0  0  0  0  0  0  0  0  0
   28.0367   13.3131   24.4397 C   0  0  0  0  0  0  0  0  0  0  0  0
   28.8251   14.4275   25.1912 C   0  0  0  0  0  0  0  0  0  0  0  0
   26.7855   13.9369   23.7595 C   0  0  0  0  0  0  0  0  0  0  0  0
   26.8605   13.7777   22.3589 C   0  0  0  0  0  0  0  0  0  0  0  0
   28.0861   13.0924   22.0191 C   0  0  0  0  0  0  0  0  0  0  0  0
   28.8096   12.8160   23.1984 C   0  0  0  0  0  0  0  0  0  0  0  0
   28.5877   12.7333   20.7762 C   0  0  0  0  0  0  0  0  0  0  0  0
   29.8344   12.1069   20.7116 C   0  0  0  0  0  0  0  0  0  0  0  0
   30.5694   11.8591   21.8791 C   0  0  0  0  0  0  0  0  0  0  0  0
   30.0636   12.2196   23.1303 C   0  0  0  0  0  0  0  0  0  0  0  0
   25.6830   14.5549   24.3412 C   0  0  0  0  0  0  0  0  0  0  0  0
   24.6666   15.0316   23.5094 C   0  0  0  0  0  0  0  0  0  0  0  0
   24.7493   14.8824   22.1183 C   0  0  0  0  0  0  0  0  0  0  0  0
   25.8494   14.2503   21.5350 C   0  0  0  0  0  0  0  0  0  0  0  0
   29.8619   14.9374   24.7672 O   0  0  0  0  0  0  0  0  0  0  0  0
   28.3027   14.8350   26.4066 N   0  0  0  0  0  0  0  0  0  0  0  0
   28.8726   15.9859   27.1119 C   0  0  0  0  0  0  0  0  0  0  0  0
   29.7306    5.4223   31.2888 C   0  0  0  0  0  0  0  0  0  0  0  0
   28.7267    4.3477   31.4682 C   0  0  0  0  0  0  0  0  0  0  0  0
   30.5496    5.6664   32.1641 O   0  0  0  0  0  0  0  0  0  0  0  0
   29.1232    3.0105   31.6607 C   0  0  0  0  0  0  0  0  0  0  0  0
   28.1148    2.0471   31.8443 C   0  0  0  0  0  0  0  0  0  0  0  0
   26.7630    2.4041   31.8362 C   0  0  0  0  0  0  0  0  0  0  0  0
   26.3906    3.7328   31.6466 C   0  0  0  0  0  0  0  0  0  0  0  0
   27.3697    4.7075   31.4634 C   0  0  0  0  0  0  0  0  0  0  0  0
   30.5290    2.5863   31.6503 C   0  0  0  0  0  0  0  0  0  0  0  0
   31.2164    2.3596   32.8509 C   0  0  0  0  0  0  0  0  0  0  0  0
   32.5567    1.9632   32.8449 C   0  0  0  0  0  0  0  0  0  0  0  0
   33.2422    1.7883   31.6346 C   0  0  0  0  0  0  0  0  0  0  0  0
   32.5531    1.9992   30.4316 C   0  0  0  0  0  0  0  0  0  0  0  0
   31.2126    2.3965   30.4407 C   0  0  0  0  0  0  0  0  0  0  0  0
   34.6851    1.3495   31.6250 C   0  0  0  0  0  0  0  0  0  0  0  0
   28.3275   17.3458   26.6681 C   0  0  0  0  0  0  0  0  0  0  0  0
   28.5960   17.6280   25.3799 F   0  0  0  0  0  0  0  0  0  0  0  0
   26.9809   17.3805   26.8273 F   0  0  0  0  0  0  0  0  0  0  0  0
   28.8458   18.3376   27.4282 F   0  0  0  0  0  0  0  0  0  0  0  0
   35.3776    1.7447   32.7296 F   0  0  0  0  0  0  0  0  0  0  0  0
   34.8111   -0.0059   31.5731 F   0  0  0  0  0  0  0  0  0  0  0  0
   35.3841    1.8306   30.5584 F   0  0  0  0  0  0  0  0  0  0  0  0
   31.5551    9.7402   29.7176 H   0  0  0  0  0  0  0  0  0  0  0  0
   30.1798   10.6325   30.3781 H   0  0  0  0  0  0  0  0  0  0  0  0
   28.9142    8.4941   30.6174 H   0  0  0  0  0  0  0  0  0  0  0  0
   30.3986    8.5012   31.5532 H   0  0  0  0  0  0  0  0  0  0  0  0
   31.4968    6.9840   30.1727 H   0  0  0  0  0  0  0  0  0  0  0  0
   30.4563    6.5372   27.7285 H   0  0  0  0  0  0  0  0  0  0  0  0
   31.6494    7.7848   28.0506 H   0  0  0  0  0  0  0  0  0  0  0  0
   28.6345    8.2152   27.9884 H   0  0  0  0  0  0  0  0  0  0  0  0
   29.7379    8.6350   26.7044 H   0  0  0  0  0  0  0  0  0  0  0  0
   28.8725    5.8879   29.4641 H   0  0  0  0  0  0  0  0  0  0  0  0
   31.1731   10.3672   26.8724 H   0  0  0  0  0  0  0  0  0  0  0  0
   31.1955   11.4611   28.2337 H   0  0  0  0  0  0  0  0  0  0  0  0
   28.9736   12.3394   27.7281 H   0  0  0  0  0  0  0  0  0  0  0  0
   30.1529   12.5705   26.4401 H   0  0  0  0  0  0  0  0  0  0  0  0
   29.1384   10.6517   25.1728 H   0  0  0  0  0  0  0  0  0  0  0  0
   28.0024   10.4017   26.4739 H   0  0  0  0  0  0  0  0  0  0  0  0
   26.9261   12.5192   26.1501 H   0  0  0  0  0  0  0  0  0  0  0  0
   26.8760   11.5043   24.7365 H   0  0  0  0  0  0  0  0  0  0  0  0
   28.0375   12.9427   19.8652 H   0  0  0  0  0  0  0  0  0  0  0  0
   30.2479   11.8264   19.7457 H   0  0  0  0  0  0  0  0  0  0  0  0
   31.5500   11.3946   21.8081 H   0  0  0  0  0  0  0  0  0  0  0  0
   30.6613   12.0554   24.0204 H   0  0  0  0  0  0  0  0  0  0  0  0
   25.5852   14.6754   25.4131 H   0  0  0  0  0  0  0  0  0  0  0  0
   23.8001   15.5256   23.9437 H   0  0  0  0  0  0  0  0  0  0  0  0
   23.9491   15.2627   21.4876 H   0  0  0  0  0  0  0  0  0  0  0  0
   25.9031   14.1383   20.4572 H   0  0  0  0  0  0  0  0  0  0  0  0
   27.3709   14.5441   26.6661 H   0  0  0  0  0  0  0  0  0  0  0  0
   29.9615   15.9738   26.9989 H   0  0  0  0  0  0  0  0  0  0  0  0
   28.6469   15.8365   28.1727 H   0  0  0  0  0  0  0  0  0  0  0  0
   28.3840    1.0024   31.9927 H   0  0  0  0  0  0  0  0  0  0  0  0
   26.0017    1.6413   31.9840 H   0  0  0  0  0  0  0  0  0  0  0  0
   25.3391    4.0096   31.6525 H   0  0  0  0  0  0  0  0  0  0  0  0
   27.0770    5.7479   31.3423 H   0  0  0  0  0  0  0  0  0  0  0  0
   30.7114    2.5122   33.8031 H   0  0  0  0  0  0  0  0  0  0  0  0
   33.0665    1.8049   33.7941 H   0  0  0  0  0  0  0  0  0  0  0  0
   33.0617    1.8639   29.4782 H   0  0  0  0  0  0  0  0  0  0  0  0
   30.7032    2.5632   29.4939 H   0  0  0  0  0  0  0  0  0  0  0  0
  1  8  1  0
  8  9  1  0
  9 10  1  0
 10 11  1  0
 11 12  1  0
 12 13  1  0
 12 14  1  0
 14 15  2  0
 15 16  1  0
 16 17  1  0
 17 12  1  0
 16 18  2  0
 18 19  1  0
 19 20  2  0
 20 21  1  0
 21 17  2  0
 14 22  1  0
 22 23  2  0
 23 24  1  0
 24 25  2  0
 25 15  1  0
 13 26  2  0
 13 27  1  0
 27 28  1  0
  7 29  1  0
 29 30  1  0
 29 31  2  0
 30 32  1  0
 32 33  2  0
 33 34  1  0
 34 35  2  0
 35 36  1  0
 36 30  2  0
 32 37  1  0
 37 38  2  0
 38 39  1  0
 39 40  2  0
 40 41  1  0
 41 42  2  0
 42 37  1  0
 40 43  1  0
 28 44  1  0
  1  2  1  0
  2  3  1  0
 44 45  1  0
  3  4  1  0
 44 46  1  0
  4  5  1  0
 44 47  1  0
  5  6  1  0
 43 48  1  0
  6  1  1  0
 43 49  1  0
  4  7  1  0
 43 50  1  0
  2 51  1  0
  2 52  1  0
  3 53  1  0
  3 54  1  0
  4 55  1  0
  5 56  1  0
  5 57  1  0
  6 58  1  0
  6 59  1  0
  7 60  1  0
  8 61  1  0
  8 62  1  0
  9 63  1  0
  9 64  1  0
 10 65  1  0
 10 66  1  0
 11 67  1  0
 11 68  1  0
 18 69  1  0
 19 70  1  0
 20 71  1  0
 21 72  1  0
 22 73  1  0
 23 74  1  0
 24 75  1  0
 25 76  1  0
 27 77  1  0
 28 78  1  0
 28 79  1  0
 33 80  1  0
 34 81  1  0
 35 82  1  0
 36 83  1  0
 38 84  1  0
 39 85  1  0
 41 86  1  0
 42 87  1  0
M  END
> <Uni-Dock RESULT> 
ENERGY=   -4.678  LOWER_BOUND=    5.798  UPPER_BOUND=   12.659
INTER + INTRA:          -4.678
INTER:                  -4.678
INTRA:                   0.000
UNBOUND:                 0.000

$$$$

     RDKit          3D

 87 92  0  0  0  0  0  0  0  0999 V2000
   29.9269    9.7969   28.4925 N   0  0  0  0  0  0  0  0  0  0  0  0
   30.5459    9.6947   29.8230 C   0  0  0  0  0  0  0  0  0  0  0  0
   30.0988    8.4360   30.5566 C   0  0  0  0  0  0  0  0  0  0  0  0
   30.5915    7.1850   29.8188 C   0  0  0  0  0  0  0  0  0  0  0  0
   30.7164    7.4183   28.3077 C   0  0  0  0  0  0  0  0  0  0  0  0
   29.7516    8.4985   27.8233 C   0  0  0  0  0  0  0  0  0  0  0  0
   29.7318    6.0443   30.1121 N   0  0  0  0  0  0  0  0  0  0  0  0
   30.6104   10.7936   27.6575 C   0  0  0  0  0  0  0  0  0  0  0  0
   29.6278   11.7689   26.9903 C   0  0  0  0  0  0  0  0  0  0  0  0
   28.6651   11.1283   25.9920 C   0  0  0  0  0  0  0  0  0  0  0  0
   27.6332   12.0877   25.3739 C   0  0  0  0  0  0  0  0  0  0  0  0
   28.1154   13.2694   24.4838 C   0  0  0  0  0  0  0  0  0  0  0  0
   28.9011   14.3833   25.2391 C   0  0  0  0  0  0  0  0  0  0  0  0
   26.8628   13.8925   23.8056 C   0  0  0  0  0  0  0  0  0  0  0  0
   26.9383   13.7380   22.4045 C   0  0  0  0  0  0  0  0  0  0  0  0
   28.1656   13.0568   22.0625 C   0  0  0  0  0  0  0  0  0  0  0  0
   28.8897   12.7783   23.2410 C   0  0  0  0  0  0  0  0  0  0  0  0
   28.6682   12.7030   20.8185 C   0  0  0  0  0  0  0  0  0  0  0  0
   29.9164   12.0798   20.7519 C   0  0  0  0  0  0  0  0  0  0  0  0
   30.6518   11.8300   21.9187 C   0  0  0  0  0  0  0  0  0  0  0  0
   30.1451   12.1851   23.1711 C   0  0  0  0  0  0  0  0  0  0  0  0
   25.7588   14.5059   24.3893 C   0  0  0  0  0  0  0  0  0  0  0  0
   24.7414   14.9829   23.5589 C   0  0  0  0  0  0  0  0  0  0  0  0
   24.8245   14.8385   22.1673 C   0  0  0  0  0  0  0  0  0  0  0  0
   25.9262   14.2109   21.5821 C   0  0  0  0  0  0  0  0  0  0  0  0
   29.9367   14.8971   24.8169 O   0  0  0  0  0  0  0  0  0  0  0  0
   28.3776   14.7855   26.4558 N   0  0  0  0  0  0  0  0  0  0  0  0
   28.9447   15.9354   27.1649 C   0  0  0  0  0  0  0  0  0  0  0  0
   29.8278    5.3602   31.3070 C   0  0  0  0  0  0  0  0  0  0  0  0
   28.8265    4.2826   31.4828 C   0  0  0  0  0  0  0  0  0  0  0  0
   30.6460    5.6034   32.1832 O   0  0  0  0  0  0  0  0  0  0  0  0
   29.2261    2.9457   31.6710 C   0  0  0  0  0  0  0  0  0  0  0  0
   28.2200    1.9794   31.8513 C   0  0  0  0  0  0  0  0  0  0  0  0
   26.8674    2.3331   31.8443 C   0  0  0  0  0  0  0  0  0  0  0  0
   26.4918    3.6615   31.6590 C   0  0  0  0  0  0  0  0  0  0  0  0
   27.4686    4.6392   31.4791 C   0  0  0  0  0  0  0  0  0  0  0  0
   30.6330    2.5250   31.6593 C   0  0  0  0  0  0  0  0  0  0  0  0
   31.3207    2.2960   32.8592 C   0  0  0  0  0  0  0  0  0  0  0  0
   32.6620    1.9028   32.8520 C   0  0  0  0  0  0  0  0  0  0  0  0
   33.3481    1.7335   31.6412 C   0  0  0  0  0  0  0  0  0  0  0  0
   32.6585    1.9468   30.4389 C   0  0  0  0  0  0  0  0  0  0  0  0
   31.3171    2.3408   30.4492 C   0  0  0  0  0  0  0  0  0  0  0  0
   34.7920    1.2983   31.6303 C   0  0  0  0  0  0  0  0  0  0  0  0
   28.3964   17.2954   26.7256 C   0  0  0  0  0  0  0  0  0  0  0  0
   28.6643   17.5825   25.4383 F   0  0  0  0  0  0  0  0  0  0  0  0
   27.0497   17.3264   26.8848 F   0  0  0  0  0  0  0  0  0  0  0  0
   28.9123   18.2860   27.4890 F   0  0  0  0  0  0  0  0  0  0  0  0
   35.4835    1.6915   32.7362 F   0  0  0  0  0  0  0  0  0  0  0  0
   34.9213   -0.0567   31.5740 F   0  0  0  0  0  0  0  0  0  0  0  0
   35.4899    1.7845   30.5654 F   0  0  0  0  0  0  0  0  0  0  0  0
   31.6420    9.6876   29.7503 H   0  0  0  0  0  0  0  0  0  0  0  0
   30.2645   10.5744   30.4136 H   0  0  0  0  0  0  0  0  0  0  0  0
   29.0040    8.4323   30.6457 H   0  0  0  0  0  0  0  0  0  0  0  0
   30.4883    8.4398   31.5817 H   0  0  0  0  0  0  0  0  0  0  0  0
   31.5903    6.9298   30.1963 H   0  0  0  0  0  0  0  0  0  0  0  0
   30.5511    6.4885   27.7506 H   0  0  0  0  0  0  0  0  0  0  0  0
   31.7411    7.7380   28.0768 H   0  0  0  0  0  0  0  0  0  0  0  0
   28.7252    8.1613   28.0158 H   0  0  0  0  0  0  0  0  0  0  0  0
   29.8277    8.5880   26.7333 H   0  0  0  0  0  0  0  0  0  0  0  0
   28.9687    5.8298   29.4838 H   0  0  0  0  0  0  0  0  0  0  0  0
   31.2588   10.3231   26.9072 H   0  0  0  0  0  0  0  0  0  0  0  0
   31.2784   11.4125   28.2720 H   0  0  0  0  0  0  0  0  0  0  0  0
   29.0544   12.2872   27.7692 H   0  0  0  0  0  0  0  0  0  0  0  0
   30.2333   12.5253   26.4820 H   0  0  0  0  0  0  0  0  0  0  0  0
   29.2235   10.6083   25.2083 H   0  0  0  0  0  0  0  0  0  0  0  0
   28.0880   10.3513   26.5085 H   0  0  0  0  0  0  0  0  0  0  0  0
   27.0066   12.4672   26.1915 H   0  0  0  0  0  0  0  0  0  0  0  0
   26.9591   11.4569   24.7746 H   0  0  0  0  0  0  0  0  0  0  0  0
   28.1175   12.9141   19.9082 H   0  0  0  0  0  0  0  0  0  0  0  0
   30.3306   11.8035   19.7852 H   0  0  0  0  0  0  0  0  0  0  0  0
   31.6335   11.3680   21.8463 H   0  0  0  0  0  0  0  0  0  0  0  0
   30.7432   12.0194   24.0606 H   0  0  0  0  0  0  0  0  0  0  0  0
   25.6606   14.6226   25.4615 H   0  0  0  0  0  0  0  0  0  0  0  0
   23.8736   15.4734   23.9947 H   0  0  0  0  0  0  0  0  0  0  0  0
   24.0234   15.2189   21.5378 H   0  0  0  0  0  0  0  0  0  0  0  0
   25.9802   14.1027   20.5039 H   0  0  0  0  0  0  0  0  0  0  0  0
   27.4465   14.4915   26.7143 H   0  0  0  0  0  0  0  0  0  0  0  0
   30.0337   15.9263   27.0520 H   0  0  0  0  0  0  0  0  0  0  0  0
   28.7193   15.7820   28.2252 H   0  0  0  0  0  0  0  0  0  0  0  0
   28.4917    0.9348   31.9963 H   0  0  0  0  0  0  0  0  0  0  0  0
   26.1079    1.5680   31.9895 H   0  0  0  0  0  0  0  0  0  0  0  0
   25.4396    3.9358   31.6657 H   0  0  0  0  0  0  0  0  0  0  0  0
   27.1734    5.6793   31.3614 H   0  0  0  0  0  0  0  0  0  0  0  0
   30.8153    2.4443   33.8118 H   0  0  0  0  0  0  0  0  0  0  0  0
   33.1721    1.7426   33.8008 H   0  0  0  0  0  0  0  0  0  0  0  0
   33.1676    1.8158   29.4851 H   0  0  0  0  0  0  0  0  0  0  0  0
   30.8074    2.5094   29.5029 H   0  0  0  0  0  0  0  0  0  0  0  0
  1  8  1  0
  8  9  1  0
  9 10  1  0
 10 11  1  0
 11 12  1  0
 12 13  1  0
 12 14  1  0
 14 15  2  0
 15 16  1  0
 16 17  1  0
 17 12  1  0
 16 18  2  0
 18 19  1  0
 19 20  2  0
 20 21  1  0
 21 17  2  0
 14 22  1  0
 22 23  2  0
 23 24  1  0
 24 25  2  0
 25 15  1  0
 13 26  2  0
 13 27  1  0
 27 28  1  0
  7 29  1  0
 29 30  1  0
 29 31  2  0
 30 32  1  0
 32 33  2  0
 33 34  1  0
 34 35  2  0
 35 36  1  0
 36 30  2  0
 32 37  1  0
 37 38  2  0
 38 39  1  0
 39 40  2  0
 40 41  1  0
 41 42  2  0
 42 37  1  0
 40 43  1  0
 28 44  1  0
  1  2  1  0
  2  3  1  0
 44 45  1  0
  3  4  1  0
 44 46  1  0
  4  5  1  0
 44 47  1  0
  5  6  1  0
 43 48  1  0
  6  1  1  0
 43 49  1  0
  4  7  1  0
 43 50  1  0
  2 51  1  0
  2 52  1  0
  3 53  1  0
  3 54  1  0
  4 55  1  0
  5 56  1  0
  5 57  1  0
  6 58  1  0
  6 59  1  0
  7 60  1  0
  8 61  1  0
  8 62  1  0
  9 63  1  0
  9 64  1  0
 10 65  1  0
 10 66  1  0
 11 67  1  0
 11 68  1  0
 18 69  1  0
 19 70  1  0
 20 71  1  0
 21 72  1  0
 22 73  1  0
 23 74  1  0
 24 75  1  0
 25 76  1  0
 27 77  1  0
 28 78  1  0
 28 79  1  0
 33 80  1  0
 34 81  1  0
 35 82  1  0
 36 83  1  0
 38 84  1  0
 39 85  1  0
 41 86  1  0
 42 87  1  0
M  END
> <Uni-Dock RESULT> 
ENERGY=   -4.663  LOWER_BOUND=    5.853  UPPER_BOUND=   12.677
INTER + INTRA:          -4.663
INTER:                  -4.663
INTRA:                   0.000
UNBOUND:                 0.000

$$$$

     RDKit          3D

 87 92  0  0  0  0  0  0  0  0999 V2000
   28.6519    9.3290   31.6327 N   0  0  0  0  0  0  0  0  0  0  0  0
   29.9338    9.2128   32.3448 C   0  0  0  0  0  0  0  0  0  0  0  0
   31.1162    9.4900   31.4243 C   0  0  0  0  0  0  0  0  0  0  0  0
   31.0877   10.9458   30.9426 C   0  0  0  0  0  0  0  0  0  0  0  0
   29.6585   11.4970   30.8569 C   0  0  0  0  0  0  0  0  0  0  0  0
   28.6406   10.3858   30.6092 C   0  0  0  0  0  0  0  0  0  0  0  0
   31.7869   11.0791   29.6700 N   0  0  0  0  0  0  0  0  0  0  0  0
   27.5233    9.4147   32.5691 C   0  0  0  0  0  0  0  0  0  0  0  0
   26.3905    8.4407   32.2088 C   0  0  0  0  0  0  0  0  0  0  0  0
   25.7097    8.7147   30.8689 C   0  0  0  0  0  0  0  0  0  0  0  0
   24.6227    7.7013   30.4708 C   0  0  0  0  0  0  0  0  0  0  0  0
   23.3409    7.5631   31.3421 C   0  0  0  0  0  0  0  0  0  0  0  0
   23.5724    6.9633   32.7616 C   0  0  0  0  0  0  0  0  0  0  0  0
   22.3338    6.6703   30.5638 C   0  0  0  0  0  0  0  0  0  0  0  0
   21.1752    7.4088   30.2399 C   0  0  0  0  0  0  0  0  0  0  0  0
   21.3058    8.7541   30.7500 C   0  0  0  0  0  0  0  0  0  0  0  0
   22.5447    8.8847   31.4124 C   0  0  0  0  0  0  0  0  0  0  0  0
   20.4191    9.8193   30.6835 C   0  0  0  0  0  0  0  0  0  0  0  0
   20.7682   11.0223   31.3014 C   0  0  0  0  0  0  0  0  0  0  0  0
   21.9848   11.1451   31.9867 C   0  0  0  0  0  0  0  0  0  0  0  0
   22.8779   10.0730   32.0524 C   0  0  0  0  0  0  0  0  0  0  0  0
   22.4597    5.3437   30.1634 C   0  0  0  0  0  0  0  0  0  0  0  0
   21.4084    4.7556   29.4557 C   0  0  0  0  0  0  0  0  0  0  0  0
   20.2542    5.4878   29.1457 C   0  0  0  0  0  0  0  0  0  0  0  0
   20.1332    6.8232   29.5357 C   0  0  0  0  0  0  0  0  0  0  0  0
   23.0645    7.4156   33.7873 O   0  0  0  0  0  0  0  0  0  0  0  0
   24.4108    5.8641   32.8335 N   0  0  0  0  0  0  0  0  0  0  0  0
   24.5637    5.1274   34.0907 C   0  0  0  0  0  0  0  0  0  0  0  0
   33.1655   11.0998   29.6060 C   0  0  0  0  0  0  0  0  0  0  0  0
   33.7182   11.1542   28.2326 C   0  0  0  0  0  0  0  0  0  0  0  0
   33.9070   11.0598   30.5781 O   0  0  0  0  0  0  0  0  0  0  0  0
   34.5376   12.2236   27.8232 C   0  0  0  0  0  0  0  0  0  0  0  0
   35.0428   12.1978   26.5106 C   0  0  0  0  0  0  0  0  0  0  0  0
   34.7422   11.1458   25.6402 C   0  0  0  0  0  0  0  0  0  0  0  0
   33.9317   10.0955   26.0645 C   0  0  0  0  0  0  0  0  0  0  0  0
   33.4189   10.0957   27.3603 C   0  0  0  0  0  0  0  0  0  0  0  0
   34.8576   13.3617   28.6942 C   0  0  0  0  0  0  0  0  0  0  0  0
   36.0891   13.4277   29.3607 C   0  0  0  0  0  0  0  0  0  0  0  0
   36.3941   14.5057   30.1966 C   0  0  0  0  0  0  0  0  0  0  0  0
   35.4698   15.5422   30.3880 C   0  0  0  0  0  0  0  0  0  0  0  0
   34.2432   15.4868   29.7106 C   0  0  0  0  0  0  0  0  0  0  0  0
   33.9406   14.4068   28.8758 C   0  0  0  0  0  0  0  0  0  0  0  0
   35.8009   16.7121   31.2804 C   0  0  0  0  0  0  0  0  0  0  0  0
   23.4976    4.0582   34.3428 C   0  0  0  0  0  0  0  0  0  0  0  0
   22.2553    4.5651   34.4483 F   0  0  0  0  0  0  0  0  0  0  0  0
   23.4927    3.1591   33.3272 F   0  0  0  0  0  0  0  0  0  0  0  0
   23.7666    3.3761   35.4797 F   0  0  0  0  0  0  0  0  0  0  0  0
   36.6639   16.3975   32.2863 F   0  0  0  0  0  0  0  0  0  0  0  0
   36.3862   17.7335   30.5949 F   0  0  0  0  0  0  0  0  0  0  0  0
   34.7052   17.2495   31.8874 F   0  0  0  0  0  0  0  0  0  0  0  0
   29.9796    9.9085   33.1938 H   0  0  0  0  0  0  0  0  0  0  0  0
   30.0235    8.1981   32.7502 H   0  0  0  0  0  0  0  0  0  0  0  0
   31.0899    8.7956   30.5736 H   0  0  0  0  0  0  0  0  0  0  0  0
   32.0573    9.2917   31.9510 H   0  0  0  0  0  0  0  0  0  0  0  0
   31.6354   11.5623   31.6673 H   0  0  0  0  0  0  0  0  0  0  0  0
   29.5777   12.2625   30.0761 H   0  0  0  0  0  0  0  0  0  0  0  0
   29.4077   11.9942   31.8031 H   0  0  0  0  0  0  0  0  0  0  0  0
   28.8654    9.9156   29.6436 H   0  0  0  0  0  0  0  0  0  0  0  0
   27.6445   10.8285   30.4911 H   0  0  0  0  0  0  0  0  0  0  0  0
   31.2565   11.0287   28.8103 H   0  0  0  0  0  0  0  0  0  0  0  0
   27.1403   10.4397   32.6553 H   0  0  0  0  0  0  0  0  0  0  0  0
   27.8465    9.1390   33.5823 H   0  0  0  0  0  0  0  0  0  0  0  0
   26.7841    7.4165   32.2154 H   0  0  0  0  0  0  0  0  0  0  0  0
   25.6532    8.5054   33.0146 H   0  0  0  0  0  0  0  0  0  0  0  0
   25.3111    9.7331   30.8484 H   0  0  0  0  0  0  0  0  0  0  0  0
   26.4664    8.6777   30.0755 H   0  0  0  0  0  0  0  0  0  0  0  0
   25.1091    6.7229   30.3640 H   0  0  0  0  0  0  0  0  0  0  0  0
   24.3177    7.9749   29.4492 H   0  0  0  0  0  0  0  0  0  0  0  0
   19.4647    9.7264   30.1764 H   0  0  0  0  0  0  0  0  0  0  0  0
   20.0821   11.8652   31.2676 H   0  0  0  0  0  0  0  0  0  0  0  0
   22.2287   12.0806   32.4845 H   0  0  0  0  0  0  0  0  0  0  0  0
   23.7976   10.1724   32.6187 H   0  0  0  0  0  0  0  0  0  0  0  0
   23.3431    4.7552   30.3783 H   0  0  0  0  0  0  0  0  0  0  0  0
   21.4832    3.7169   29.1410 H   0  0  0  0  0  0  0  0  0  0  0  0
   19.4456    5.0112   28.5963 H   0  0  0  0  0  0  0  0  0  0  0  0
   19.2364    7.3819   29.2894 H   0  0  0  0  0  0  0  0  0  0  0  0
   24.6834    5.3943   31.9819 H   0  0  0  0  0  0  0  0  0  0  0  0
   24.5743    5.8370   34.9245 H   0  0  0  0  0  0  0  0  0  0  0  0
   25.5483    4.6507   34.0477 H   0  0  0  0  0  0  0  0  0  0  0  0
   35.6771   13.0098   26.1581 H   0  0  0  0  0  0  0  0  0  0  0  0
   35.1479   11.1467   24.6310 H   0  0  0  0  0  0  0  0  0  0  0  0
   33.7091    9.2726   25.3894 H   0  0  0  0  0  0  0  0  0  0  0  0
   32.8083    9.2612   27.6974 H   0  0  0  0  0  0  0  0  0  0  0  0
   36.8128   12.6227   29.2459 H   0  0  0  0  0  0  0  0  0  0  0  0
   37.3550   14.5235   30.7088 H   0  0  0  0  0  0  0  0  0  0  0  0
   33.5109   16.2827   29.8380 H   0  0  0  0  0  0  0  0  0  0  0  0
   32.9780   14.3825   28.3692 H   0  0  0  0  0  0  0  0  0  0  0  0
  1  8  1  0
  8  9  1  0
  9 10  1  0
 10 11  1  0
 11 12  1  0
 12 13  1  0
 12 14  1  0
 14 15  2  0
 15 16  1  0
 16 17  1  0
 17 12  1  0
 16 18  2  0
 18 19  1  0
 19 20  2  0
 20 21  1  0
 21 17  2  0
 14 22  1  0
 22 23  2  0
 23 24  1  0
 24 25  2  0
 25 15  1  0
 13 26  2  0
 13 27  1  0
 27 28  1  0
  7 29  1  0
 29 30  1  0
 29 31  2  0
 30 32  1  0
 32 33  2  0
 33 34  1  0
 34 35  2  0
 35 36  1  0
 36 30  2  0
 32 37  1  0
 37 38  2  0
 38 39  1  0
 39 40  2  0
 40 41  1  0
 41 42  2  0
 42 37  1  0
 40 43  1  0
 28 44  1  0
  1  2  1  0
  2  3  1  0
 44 45  1  0
  3  4  1  0
 44 46  1  0
  4  5  1  0
 44 47  1  0
  5  6  1  0
 43 48  1  0
  6  1  1  0
 43 49  1  0
  4  7  1  0
 43 50  1  0
  2 51  1  0
  2 52  1  0
  3 53  1  0
  3 54  1  0
  4 55  1  0
  5 56  1  0
  5 57  1  0
  6 58  1  0
  6 59  1  0
  7 60  1  0
  8 61  1  0
  8 62  1  0
  9 63  1  0
  9 64  1  0
 10 65  1  0
 10 66  1  0
 11 67  1  0
 11 68  1  0
 18 69  1  0
 19 70  1  0
 20 71  1  0
 21 72  1  0
 22 73  1  0
 23 74  1  0
 24 75  1  0
 25 76  1  0
 27 77  1  0
 28 78  1  0
 28 79  1  0
 33 80  1  0
 34 81  1  0
 35 82  1  0
 36 83  1  0
 38 84  1  0
 39 85  1  0
 41 86  1  0
 42 87  1  0
M  END
> <Uni-Dock RESULT> 
ENERGY=   -4.514  LOWER_BOUND=    6.476  UPPER_BOUND=    7.831
INTER + INTRA:          -4.514
INTER:                  -4.514
INTRA:                   0.000
UNBOUND:                 0.000

$$$$

     RDKit          3D

 87 92  0  0  0  0  0  0  0  0999 V2000
   32.1644    7.9384   31.2448 N   0  0  0  0  0  0  0  0  0  0  0  0
   31.7066    9.2366   31.7634 C   0  0  0  0  0  0  0  0  0  0  0  0
   31.0965   10.0982   30.6644 C   0  0  0  0  0  0  0  0  0  0  0  0
   29.8213    9.4435   30.1190 C   0  0  0  0  0  0  0  0  0  0  0  0
   29.8705    7.9134   30.2189 C   0  0  0  0  0  0  0  0  0  0  0  0
   31.3058    7.3928   30.1821 C   0  0  0  0  0  0  0  0  0  0  0  0
   29.5650    9.8798   28.7514 N   0  0  0  0  0  0  0  0  0  0  0  0
   32.4190    6.9851   32.3331 C   0  0  0  0  0  0  0  0  0  0  0  0
   33.7840    6.2926   32.1952 C   0  0  0  0  0  0  0  0  0  0  0  0
   33.9331    5.4070   30.9593 C   0  0  0  0  0  0  0  0  0  0  0  0
   35.3207    4.7673   30.7792 C   0  0  0  0  0  0  0  0  0  0  0  0
   35.8462    3.7547   31.8374 C   0  0  0  0  0  0  0  0  0  0  0  0
   36.1597    4.3679   33.2352 C   0  0  0  0  0  0  0  0  0  0  0  0
   37.1324    3.0960   31.2638 C   0  0  0  0  0  0  0  0  0  0  0  0
   36.9311    1.7111   31.0788 C   0  0  0  0  0  0  0  0  0  0  0  0
   35.5926    1.3612   31.4948 C   0  0  0  0  0  0  0  0  0  0  0  0
   34.9298    2.5174   31.9581 C   0  0  0  0  0  0  0  0  0  0  0  0
   34.9606    0.1260   31.5069 C   0  0  0  0  0  0  0  0  0  0  0  0
   33.6579    0.0440   32.0041 C   0  0  0  0  0  0  0  0  0  0  0  0
   33.0083    1.1855   32.4937 C   0  0  0  0  0  0  0  0  0  0  0  0
   33.6444    2.4291   32.4803 C   0  0  0  0  0  0  0  0  0  0  0  0
   38.3441    3.6854   30.9171 C   0  0  0  0  0  0  0  0  0  0  0  0
   39.3601    2.8748   30.4044 C   0  0  0  0  0  0  0  0  0  0  0  0
   39.1614    1.4981   30.2327 C   0  0  0  0  0  0  0  0  0  0  0  0
   37.9408    0.9085   30.5680 C   0  0  0  0  0  0  0  0  0  0  0  0
   35.8311    3.8471   34.3008 O   0  0  0  0  0  0  0  0  0  0  0  0
   36.8409    5.5730   33.2374 N   0  0  0  0  0  0  0  0  0  0  0  0
   37.3271    6.1493   34.4937 C   0  0  0  0  0  0  0  0  0  0  0  0
   29.0258   11.1215   28.4821 C   0  0  0  0  0  0  0  0  0  0  0  0
   28.9084   11.4433   27.0409 C   0  0  0  0  0  0  0  0  0  0  0  0
   28.6772   11.9273   29.3339 O   0  0  0  0  0  0  0  0  0  0  0  0
   27.6563   11.7222   26.4604 C   0  0  0  0  0  0  0  0  0  0  0  0
   27.6244   12.0394   25.0903 C   0  0  0  0  0  0  0  0  0  0  0  0
   28.7963   12.0768   24.3288 C   0  0  0  0  0  0  0  0  0  0  0  0
   30.0260   11.8002   24.9217 C   0  0  0  0  0  0  0  0  0  0  0  0
   30.0860   11.4841   26.2777 C   0  0  0  0  0  0  0  0  0  0  0  0
   26.3978   11.6689   27.2152 C   0  0  0  0  0  0  0  0  0  0  0  0
   25.7966   12.8441   27.6869 C   0  0  0  0  0  0  0  0  0  0  0  0
   24.6028   12.7965   28.4123 C   0  0  0  0  0  0  0  0  0  0  0  0
   23.9844   11.5685   28.6862 C   0  0  0  0  0  0  0  0  0  0  0  0
   24.5752   10.3922   28.2024 C   0  0  0  0  0  0  0  0  0  0  0  0
   25.7698   10.4429   27.4778 C   0  0  0  0  0  0  0  0  0  0  0  0
   22.6903   11.5151   29.4588 C   0  0  0  0  0  0  0  0  0  0  0  0
   38.6898    5.6268   34.9554 C   0  0  0  0  0  0  0  0  0  0  0  0
   38.6882    4.3069   35.2187 F   0  0  0  0  0  0  0  0  0  0  0  0
   39.6236    5.8567   33.9988 F   0  0  0  0  0  0  0  0  0  0  0  0
   39.0941    6.2734   36.0728 F   0  0  0  0  0  0  0  0  0  0  0  0
   22.5438   12.5437   30.3398 F   0  0  0  0  0  0  0  0  0  0  0  0
   21.6006   11.5672   28.6429 F   0  0  0  0  0  0  0  0  0  0  0  0
   22.5521   10.3757   30.1939 F   0  0  0  0  0  0  0  0  0  0  0  0
   30.9614    9.1044   32.5597 H   0  0  0  0  0  0  0  0  0  0  0  0
   32.5614    9.7648   32.2019 H   0  0  0  0  0  0  0  0  0  0  0  0
   31.8332   10.2475   29.8634 H   0  0  0  0  0  0  0  0  0  0  0  0
   30.8637   11.0961   31.0546 H   0  0  0  0  0  0  0  0  0  0  0  0
   28.9700    9.7857   30.7219 H   0  0  0  0  0  0  0  0  0  0  0  0
   29.2804    7.4474   29.4209 H   0  0  0  0  0  0  0  0  0  0  0  0
   29.4108    7.6000   31.1654 H   0  0  0  0  0  0  0  0  0  0  0  0
   31.7527    7.6696   29.2189 H   0  0  0  0  0  0  0  0  0  0  0  0
   31.2924    6.2966   30.1911 H   0  0  0  0  0  0  0  0  0  0  0  0
   29.9040    9.3151   27.9839 H   0  0  0  0  0  0  0  0  0  0  0  0
   31.6154    6.2430   32.4231 H   0  0  0  0  0  0  0  0  0  0  0  0
   32.4425    7.5069   33.2996 H   0  0  0  0  0  0  0  0  0  0  0  0
   34.5732    7.0549   32.1952 H   0  0  0  0  0  0  0  0  0  0  0  0
   33.9221    5.6891   33.0974 H   0  0  0  0  0  0  0  0  0  0  0  0
   33.1526    4.6408   30.9466 H   0  0  0  0  0  0  0  0  0  0  0  0
   33.7609    6.0188   30.0651 H   0  0  0  0  0  0  0  0  0  0  0  0
   36.0442    5.5830   30.6511 H   0  0  0  0  0  0  0  0  0  0  0  0
   35.2930    4.2620   29.8018 H   0  0  0  0  0  0  0  0  0  0  0  0
   35.4638   -0.7673   31.1527 H   0  0  0  0  0  0  0  0  0  0  0  0
   33.1499   -0.9171   32.0300 H   0  0  0  0  0  0  0  0  0  0  0  0
   32.0041    1.0986   32.9016 H   0  0  0  0  0  0  0  0  0  0  0  0
   33.1423    3.2952   32.8977 H   0  0  0  0  0  0  0  0  0  0  0  0
   38.5242    4.7476   31.0278 H   0  0  0  0  0  0  0  0  0  0  0  0
   40.3181    3.3145   30.1352 H   0  0  0  0  0  0  0  0  0  0  0  0
   39.9656    0.8836   29.8346 H   0  0  0  0  0  0  0  0  0  0  0  0
   37.7965   -0.1578   30.4298 H   0  0  0  0  0  0  0  0  0  0  0  0
   37.2573    5.9065   32.3797 H   0  0  0  0  0  0  0  0  0  0  0  0
   36.5842    5.9777   35.2794 H   0  0  0  0  0  0  0  0  0  0  0  0
   37.3929    7.2296   34.3289 H   0  0  0  0  0  0  0  0  0  0  0  0
   26.6733   12.2575   24.6066 H   0  0  0  0  0  0  0  0  0  0  0  0
   28.7462   12.3283   23.2717 H   0  0  0  0  0  0  0  0  0  0  0  0
   30.9373   11.8415   24.3299 H   0  0  0  0  0  0  0  0  0  0  0  0
   31.0502   11.2948   26.7438 H   0  0  0  0  0  0  0  0  0  0  0  0
   26.2711   13.8071   27.5067 H   0  0  0  0  0  0  0  0  0  0  0  0
   24.1655   13.7258   28.7743 H   0  0  0  0  0  0  0  0  0  0  0  0
   24.1109    9.4264   28.3967 H   0  0  0  0  0  0  0  0  0  0  0  0
   26.2131    9.5153   27.1219 H   0  0  0  0  0  0  0  0  0  0  0  0
  1  8  1  0
  8  9  1  0
  9 10  1  0
 10 11  1  0
 11 12  1  0
 12 13  1  0
 12 14  1  0
 14 15  2  0
 15 16  1  0
 16 17  1  0
 17 12  1  0
 16 18  2  0
 18 19  1  0
 19 20  2  0
 20 21  1  0
 21 17  2  0
 14 22  1  0
 22 23  2  0
 23 24  1  0
 24 25  2  0
 25 15  1  0
 13 26  2  0
 13 27  1  0
 27 28  1  0
  7 29  1  0
 29 30  1  0
 29 31  2  0
 30 32  1  0
 32 33  2  0
 33 34  1  0
 34 35  2  0
 35 36  1  0
 36 30  2  0
 32 37  1  0
 37 38  2  0
 38 39  1  0
 39 40  2  0
 40 41  1  0
 41 42  2  0
 42 37  1  0
 40 43  1  0
 28 44  1  0
  1  2  1  0
  2  3  1  0
 44 45  1  0
  3  4  1  0
 44 46  1  0
  4  5  1  0
 44 47  1  0
  5  6  1  0
 43 48  1  0
  6  1  1  0
 43 49  1  0
  4  7  1  0
 43 50  1  0
  2 51  1  0
  2 52  1  0
  3 53  1  0
  3 54  1  0
  4 55  1  0
  5 56  1  0
  5 57  1  0
  6 58  1  0
  6 59  1  0
  7 60  1  0
  8 61  1  0
  8 62  1  0
  9 63  1  0
  9 64  1  0
 10 65  1  0
 10 66  1  0
 11 67  1  0
 11 68  1  0
 18 69  1  0
 19 70  1  0
 20 71  1  0
 21 72  1  0
 22 73  1  0
 23 74  1  0
 24 75  1  0
 25 76  1  0
 27 77  1  0
 28 78  1  0
 28 79  1  0
 33 80  1  0
 34 81  1  0
 35 82  1  0
 36 83  1  0
 38 84  1  0
 39 85  1  0
 41 86  1  0
 42 87  1  0
M  END
> <Uni-Dock RESULT> 
ENERGY=   -4.358  LOWER_BOUND=    8.244  UPPER_BOUND=   12.465
INTER + INTRA:          -4.358
INTER:                  -4.358
INTRA:                   0.000
UNBOUND:                 0.000

$$$$

     RDKit          3D

 87 92  0  0  0  0  0  0  0  0999 V2000
   28.4715   12.5344   25.6455 N   0  0  0  0  0  0  0  0  0  0  0  0
   28.7092   12.7808   27.0761 C   0  0  0  0  0  0  0  0  0  0  0  0
   27.4026   12.9207   27.8478 C   0  0  0  0  0  0  0  0  0  0  0  0
   26.6230   11.6002   27.8211 C   0  0  0  0  0  0  0  0  0  0  0  0
   26.8996   10.7929   26.5462 C   0  0  0  0  0  0  0  0  0  0  0  0
   27.2903   11.6985   25.3802 C   0  0  0  0  0  0  0  0  0  0  0  0
   25.1962   11.8429   27.9986 N   0  0  0  0  0  0  0  0  0  0  0  0
   29.6866   12.0533   24.9745 C   0  0  0  0  0  0  0  0  0  0  0  0
   29.9810   12.8235   23.6776 C   0  0  0  0  0  0  0  0  0  0  0  0
   28.9300   12.6608   22.5810 C   0  0  0  0  0  0  0  0  0  0  0  0
   29.1840   13.4850   21.3070 C   0  0  0  0  0  0  0  0  0  0  0  0
   30.4463   13.1997   20.4429 C   0  0  0  0  0  0  0  0  0  0  0  0
   31.8017   13.5700   21.1167 C   0  0  0  0  0  0  0  0  0  0  0  0
   30.2985   13.9924   19.1136 C   0  0  0  0  0  0  0  0  0  0  0  0
   30.2212   13.1029   18.0203 C   0  0  0  0  0  0  0  0  0  0  0  0
   30.3149   11.7436   18.5005 C   0  0  0  0  0  0  0  0  0  0  0  0
   30.4624   11.7526   19.9037 C   0  0  0  0  0  0  0  0  0  0  0  0
   30.2996   10.5491   17.7945 C   0  0  0  0  0  0  0  0  0  0  0  0
   30.4511    9.3521   18.4982 C   0  0  0  0  0  0  0  0  0  0  0  0
   30.6289    9.3599   19.8886 C   0  0  0  0  0  0  0  0  0  0  0  0
   30.6430   10.5624   20.5992 C   0  0  0  0  0  0  0  0  0  0  0  0
   30.2124   15.3665   18.9126 C   0  0  0  0  0  0  0  0  0  0  0  0
   30.0704   15.8444   17.6073 C   0  0  0  0  0  0  0  0  0  0  0  0
   30.0056   14.9592   16.5226 C   0  0  0  0  0  0  0  0  0  0  0  0
   30.0785   13.5795   16.7253 C   0  0  0  0  0  0  0  0  0  0  0  0
   32.7974   12.8471   21.0946 O   0  0  0  0  0  0  0  0  0  0  0  0
   31.8466   14.7864   21.7761 N   0  0  0  0  0  0  0  0  0  0  0  0
   33.1145   15.3013   22.2995 C   0  0  0  0  0  0  0  0  0  0  0  0
   24.6627   12.1165   29.2418 C   0  0  0  0  0  0  0  0  0  0  0  0
   23.2133   12.4231   29.2369 C   0  0  0  0  0  0  0  0  0  0  0  0
   25.3025   12.1324   30.2843 O   0  0  0  0  0  0  0  0  0  0  0  0
   22.3035   11.6349   29.9673 C   0  0  0  0  0  0  0  0  0  0  0  0
   20.9450   11.9982   29.9318 C   0  0  0  0  0  0  0  0  0  0  0  0
   20.5110   13.1051   29.1961 C   0  0  0  0  0  0  0  0  0  0  0  0
   21.4268   13.8741   28.4819 C   0  0  0  0  0  0  0  0  0  0  0  0
   22.7789   13.5368   28.5009 C   0  0  0  0  0  0  0  0  0  0  0  0
   22.7105   10.4491   30.7318 C   0  0  0  0  0  0  0  0  0  0  0  0
   22.8799   10.5180   32.1217 C   0  0  0  0  0  0  0  0  0  0  0  0
   23.2747    9.3932   32.8516 C   0  0  0  0  0  0  0  0  0  0  0  0
   23.5134    8.1724   32.2051 C   0  0  0  0  0  0  0  0  0  0  0  0
   23.3300    8.0963   30.8168 C   0  0  0  0  0  0  0  0  0  0  0  0
   22.9358    9.2233   30.0893 C   0  0  0  0  0  0  0  0  0  0  0  0
   23.9284    6.9544   32.9917 C   0  0  0  0  0  0  0  0  0  0  0  0
   33.9656   16.0670   21.2833 C   0  0  0  0  0  0  0  0  0  0  0  0
   34.3628   15.3063   20.2466 F   0  0  0  0  0  0  0  0  0  0  0  0
   33.2619   17.1133   20.7831 F   0  0  0  0  0  0  0  0  0  0  0  0
   35.0713   16.5748   21.8746 F   0  0  0  0  0  0  0  0  0  0  0  0
   24.6238    7.2534   34.1242 F   0  0  0  0  0  0  0  0  0  0  0  0
   22.8592    6.2141   33.3971 F   0  0  0  0  0  0  0  0  0  0  0  0
   24.7238    6.1045   32.2827 F   0  0  0  0  0  0  0  0  0  0  0  0
   29.2967   11.9686   27.5256 H   0  0  0  0  0  0  0  0  0  0  0  0
   29.2920   13.7029   27.1851 H   0  0  0  0  0  0  0  0  0  0  0  0
   26.8066   13.7360   27.4158 H   0  0  0  0  0  0  0  0  0  0  0  0
   27.6079   13.2096   28.8855 H   0  0  0  0  0  0  0  0  0  0  0  0
   26.9455   10.9892   28.6743 H   0  0  0  0  0  0  0  0  0  0  0  0
   26.0328   10.1797   26.2726 H   0  0  0  0  0  0  0  0  0  0  0  0
   27.7246   10.0936   26.7355 H   0  0  0  0  0  0  0  0  0  0  0  0
   26.4500   12.3700   25.1631 H   0  0  0  0  0  0  0  0  0  0  0  0
   27.4159   11.0900   24.4769 H   0  0  0  0  0  0  0  0  0  0  0  0
   24.6083   11.9370   27.1809 H   0  0  0  0  0  0  0  0  0  0  0  0
   29.6478   10.9732   24.7833 H   0  0  0  0  0  0  0  0  0  0  0  0
   30.5633   12.2033   25.6193 H   0  0  0  0  0  0  0  0  0  0  0  0
   30.1003   13.8885   23.9136 H   0  0  0  0  0  0  0  0  0  0  0  0
   30.9491   12.4662   23.3136 H   0  0  0  0  0  0  0  0  0  0  0  0
   28.8012   11.6029   22.3345 H   0  0  0  0  0  0  0  0  0  0  0  0
   27.9600   12.9932   22.9710 H   0  0  0  0  0  0  0  0  0  0  0  0
   29.1575   14.5451   21.5910 H   0  0  0  0  0  0  0  0  0  0  0  0
   28.2939   13.3424   20.6754 H   0  0  0  0  0  0  0  0  0  0  0  0
   30.1870   10.5342   16.7158 H   0  0  0  0  0  0  0  0  0  0  0  0
   30.4509    8.4067   17.9610 H   0  0  0  0  0  0  0  0  0  0  0  0
   30.7720    8.4203   20.4170 H   0  0  0  0  0  0  0  0  0  0  0  0
   30.8197   10.5534   21.6693 H   0  0  0  0  0  0  0  0  0  0  0  0
   30.2485   16.0750   19.7309 H   0  0  0  0  0  0  0  0  0  0  0  0
   30.0099   16.9156   17.4277 H   0  0  0  0  0  0  0  0  0  0  0  0
   29.8976   15.3509   15.5138 H   0  0  0  0  0  0  0  0  0  0  0  0
   30.0257   12.9026   15.8791 H   0  0  0  0  0  0  0  0  0  0  0  0
   31.0935   15.4468   21.6460 H   0  0  0  0  0  0  0  0  0  0  0  0
   33.6968   14.4712   22.7126 H   0  0  0  0  0  0  0  0  0  0  0  0
   32.8547   15.9691   23.1272 H   0  0  0  0  0  0  0  0  0  0  0  0
   20.2122   11.4097   30.4819 H   0  0  0  0  0  0  0  0  0  0  0  0
   19.4556   13.3681   29.1872 H   0  0  0  0  0  0  0  0  0  0  0  0
   21.0883   14.7414   27.9201 H   0  0  0  0  0  0  0  0  0  0  0  0
   23.4950   14.1546   27.9640 H   0  0  0  0  0  0  0  0  0  0  0  0
   22.7232   11.4612   32.6419 H   0  0  0  0  0  0  0  0  0  0  0  0
   23.4078    9.4808   33.9289 H   0  0  0  0  0  0  0  0  0  0  0  0
   23.5032    7.1578   30.2923 H   0  0  0  0  0  0  0  0  0  0  0  0
   22.8099    9.1406   29.0117 H   0  0  0  0  0  0  0  0  0  0  0  0
  1  8  1  0
  8  9  1  0
  9 10  1  0
 10 11  1  0
 11 12  1  0
 12 13  1  0
 12 14  1  0
 14 15  2  0
 15 16  1  0
 16 17  1  0
 17 12  1  0
 16 18  2  0
 18 19  1  0
 19 20  2  0
 20 21  1  0
 21 17  2  0
 14 22  1  0
 22 23  2  0
 23 24  1  0
 24 25  2  0
 25 15  1  0
 13 26  2  0
 13 27  1  0
 27 28  1  0
  7 29  1  0
 29 30  1  0
 29 31  2  0
 30 32  1  0
 32 33  2  0
 33 34  1  0
 34 35  2  0
 35 36  1  0
 36 30  2  0
 32 37  1  0
 37 38  2  0
 38 39  1  0
 39 40  2  0
 40 41  1  0
 41 42  2  0
 42 37  1  0
 40 43  1  0
 28 44  1  0
  1  2  1  0
  2  3  1  0
 44 45  1  0
  3  4  1  0
 44 46  1  0
  4  5  1  0
 44 47  1  0
  5  6  1  0
 43 48  1  0
  6  1  1  0
 43 49  1  0
  4  7  1  0
 43 50  1  0
  2 51  1  0
  2 52  1  0
  3 53  1  0
  3 54  1  0
  4 55  1  0
  5 56  1  0
  5 57  1  0
  6 58  1  0
  6 59  1  0
  7 60  1  0
  8 61  1  0
  8 62  1  0
  9 63  1  0
  9 64  1  0
 10 65  1  0
 10 66  1  0
 11 67  1  0
 11 68  1  0
 18 69  1  0
 19 70  1  0
 20 71  1  0
 21 72  1  0
 22 73  1  0
 23 74  1  0
 24 75  1  0
 25 76  1  0
 27 77  1  0
 28 78  1  0
 28 79  1  0
 33 80  1  0
 34 81  1  0
 35 82  1  0
 36 83  1  0
 38 84  1  0
 39 85  1  0
 41 86  1  0
 42 87  1  0
M  END
> <Uni-Dock RESULT> 
ENERGY=   -4.074  LOWER_BOUND=    1.980  UPPER_BOUND=   13.703
INTER + INTRA:          -4.074
INTER:                  -4.074
INTRA:                   0.000
UNBOUND:                 0.000

$$$$

     RDKit          3D

 87 92  0  0  0  0  0  0  0  0999 V2000
   28.6135   10.2729   28.3608 N   0  0  0  0  0  0  0  0  0  0  0  0
   30.0705   10.0858   28.2856 C   0  0  0  0  0  0  0  0  0  0  0  0
   30.6187   10.4786   26.9190 C   0  0  0  0  0  0  0  0  0  0  0  0
   30.4223   11.9802   26.6767 C   0  0  0  0  0  0  0  0  0  0  0  0
   29.1866   12.5251   27.4047 C   0  0  0  0  0  0  0  0  0  0  0  0
   28.1301   11.4413   27.6088 C   0  0  0  0  0  0  0  0  0  0  0  0
   30.3678   12.2668   25.2480 N   0  0  0  0  0  0  0  0  0  0  0  0
   28.1388   10.2392   29.7506 C   0  0  0  0  0  0  0  0  0  0  0  0
   26.9331    9.3038   29.9332 C   0  0  0  0  0  0  0  0  0  0  0  0
   25.6729    9.7258   29.1800 C   0  0  0  0  0  0  0  0  0  0  0  0
   24.4847    8.7561   29.3027 C   0  0  0  0  0  0  0  0  0  0  0  0
   23.8337    8.5063   30.6937 C   0  0  0  0  0  0  0  0  0  0  0  0
   24.7342    7.7475   31.7143 C   0  0  0  0  0  0  0  0  0  0  0  0
   22.5234    7.7013   30.4651 C   0  0  0  0  0  0  0  0  0  0  0  0
   21.4055    8.4622   30.8699 C   0  0  0  0  0  0  0  0  0  0  0  0
   21.8525    9.7402   31.3741 C   0  0  0  0  0  0  0  0  0  0  0  0
   23.2603    9.8037   31.3047 C   0  0  0  0  0  0  0  0  0  0  0  0
   21.1173   10.7981   31.8897 C   0  0  0  0  0  0  0  0  0  0  0  0
   21.7991   11.9240   32.3568 C   0  0  0  0  0  0  0  0  0  0  0  0
   23.1993   11.9770   32.3176 C   0  0  0  0  0  0  0  0  0  0  0  0
   23.9391   10.9124   31.7975 C   0  0  0  0  0  0  0  0  0  0  0  0
   22.3533    6.4314   29.9224 C   0  0  0  0  0  0  0  0  0  0  0  0
   21.0579    5.9204   29.8083 C   0  0  0  0  0  0  0  0  0  0  0  0
   19.9507    6.6736   30.2219 C   0  0  0  0  0  0  0  0  0  0  0  0
   20.1201    7.9535   30.7542 C   0  0  0  0  0  0  0  0  0  0  0  0
   24.8553    8.0729   32.8950 O   0  0  0  0  0  0  0  0  0  0  0  0
   25.4291    6.6547   31.2250 N   0  0  0  0  0  0  0  0  0  0  0  0
   26.1712    5.7782   32.1347 C   0  0  0  0  0  0  0  0  0  0  0  0
   31.5132   12.3068   24.4787 C   0  0  0  0  0  0  0  0  0  0  0  0
   31.2773   12.5255   23.0327 C   0  0  0  0  0  0  0  0  0  0  0  0
   32.6474   12.1605   24.9130 O   0  0  0  0  0  0  0  0  0  0  0  0
   31.8219   13.6424   22.3704 C   0  0  0  0  0  0  0  0  0  0  0  0
   31.5726   13.7739   20.9923 C   0  0  0  0  0  0  0  0  0  0  0  0
   30.8096   12.8277   20.3014 C   0  0  0  0  0  0  0  0  0  0  0  0
   30.2813   11.7281   20.9737 C   0  0  0  0  0  0  0  0  0  0  0  0
   30.5140   11.5731   22.3390 C   0  0  0  0  0  0  0  0  0  0  0  0
   32.6064   14.6741   23.0605 C   0  0  0  0  0  0  0  0  0  0  0  0
   34.0066   14.6730   22.9918 C   0  0  0  0  0  0  0  0  0  0  0  0
   34.7569   15.6491   23.6537 C   0  0  0  0  0  0  0  0  0  0  0  0
   34.1216   16.6482   24.4044 C   0  0  0  0  0  0  0  0  0  0  0  0
   32.7205   16.6611   24.4625 C   0  0  0  0  0  0  0  0  0  0  0  0
   31.9727   15.6830   23.8001 C   0  0  0  0  0  0  0  0  0  0  0  0
   34.9282   17.7092   25.1102 C   0  0  0  0  0  0  0  0  0  0  0  0
   25.3344    4.6777   32.7919 C   0  0  0  0  0  0  0  0  0  0  0  0
   24.3550    5.1579   33.5802 F   0  0  0  0  0  0  0  0  0  0  0  0
   24.7569    3.9027   31.8401 F   0  0  0  0  0  0  0  0  0  0  0  0
   26.1164    3.8703   33.5448 F   0  0  0  0  0  0  0  0  0  0  0  0
   36.1692   17.2873   25.4813 F   0  0  0  0  0  0  0  0  0  0  0  0
   35.1276   18.8084   24.3307 F   0  0  0  0  0  0  0  0  0  0  0  0
   34.3353   18.1627   26.2505 F   0  0  0  0  0  0  0  0  0  0  0  0
   30.5860   10.6784   29.0537 H   0  0  0  0  0  0  0  0  0  0  0  0
   30.3031    9.0317   28.4771 H   0  0  0  0  0  0  0  0  0  0  0  0
   30.1191    9.8876   26.1394 H   0  0  0  0  0  0  0  0  0  0  0  0
   31.6844   10.2286   26.8553 H   0  0  0  0  0  0  0  0  0  0  0  0
   31.2978   12.5130   27.0701 H   0  0  0  0  0  0  0  0  0  0  0  0
   28.7542   13.3755   26.8643 H   0  0  0  0  0  0  0  0  0  0  0  0
   29.4885   12.9066   28.3890 H   0  0  0  0  0  0  0  0  0  0  0  0
   27.7974   11.0886   26.6244 H   0  0  0  0  0  0  0  0  0  0  0  0
   27.2419   11.8860   28.0728 H   0  0  0  0  0  0  0  0  0  0  0  0
   29.4672   12.3121   24.7899 H   0  0  0  0  0  0  0  0  0  0  0  0
   27.9107   11.2437   30.1293 H   0  0  0  0  0  0  0  0  0  0  0  0
   28.9245    9.8503   30.4127 H   0  0  0  0  0  0  0  0  0  0  0  0
   27.2184    8.2893   29.6277 H   0  0  0  0  0  0  0  0  0  0  0  0
   26.7240    9.2678   31.0066 H   0  0  0  0  0  0  0  0  0  0  0  0
   25.3759   10.7362   29.4757 H   0  0  0  0  0  0  0  0  0  0  0  0
   25.9065    9.7880   28.1100 H   0  0  0  0  0  0  0  0  0  0  0  0
   24.7929    7.8011   28.8575 H   0  0  0  0  0  0  0  0  0  0  0  0
   23.7101    9.1440   28.6237 H   0  0  0  0  0  0  0  0  0  0  0  0
   20.0349   10.7564   31.9466 H   0  0  0  0  0  0  0  0  0  0  0  0
   21.2404   12.7591   32.7726 H   0  0  0  0  0  0  0  0  0  0  0  0
   23.7149   12.8503   32.7100 H   0  0  0  0  0  0  0  0  0  0  0  0
   25.0229   10.9533   31.8094 H   0  0  0  0  0  0  0  0  0  0  0  0
   23.1877    5.8297   29.5839 H   0  0  0  0  0  0  0  0  0  0  0  0
   20.9038    4.9261   29.3946 H   0  0  0  0  0  0  0  0  0  0  0  0
   18.9506    6.2571   30.1273 H   0  0  0  0  0  0  0  0  0  0  0  0
   19.2565    8.5291   31.0699 H   0  0  0  0  0  0  0  0  0  0  0  0
   25.1962    6.2896   30.3125 H   0  0  0  0  0  0  0  0  0  0  0  0
   26.6494    6.3861   32.9096 H   0  0  0  0  0  0  0  0  0  0  0  0
   26.9645    5.3184   31.5365 H   0  0  0  0  0  0  0  0  0  0  0  0
   31.9751   14.6269   20.4478 H   0  0  0  0  0  0  0  0  0  0  0  0
   30.6338   12.9495   19.2350 H   0  0  0  0  0  0  0  0  0  0  0  0
   29.6982   10.9874   20.4317 H   0  0  0  0  0  0  0  0  0  0  0  0
   30.1227   10.6997   22.8557 H   0  0  0  0  0  0  0  0  0  0  0  0
   34.5224   13.8932   22.4344 H   0  0  0  0  0  0  0  0  0  0  0  0
   35.8435   15.6156   23.5899 H   0  0  0  0  0  0  0  0  0  0  0  0
   32.2033   17.4304   25.0341 H   0  0  0  0  0  0  0  0  0  0  0  0
   30.8872   15.7094   23.8688 H   0  0  0  0  0  0  0  0  0  0  0  0
  1  8  1  0
  8  9  1  0
  9 10  1  0
 10 11  1  0
 11 12  1  0
 12 13  1  0
 12 14  1  0
 14 15  2  0
 15 16  1  0
 16 17  1  0
 17 12  1  0
 16 18  2  0
 18 19  1  0
 19 20  2  0
 20 21  1  0
 21 17  2  0
 14 22  1  0
 22 23  2  0
 23 24  1  0
 24 25  2  0
 25 15  1  0
 13 26  2  0
 13 27  1  0
 27 28  1  0
  7 29  1  0
 29 30  1  0
 29 31  2  0
 30 32  1  0
 32 33  2  0
 33 34  1  0
 34 35  2  0
 35 36  1  0
 36 30  2  0
 32 37  1  0
 37 38  2  0
 38 39  1  0
 39 40  2  0
 40 41  1  0
 41 42  2  0
 42 37  1  0
 40 43  1  0
 28 44  1  0
  1  2  1  0
  2  3  1  0
 44 45  1  0
  3  4  1  0
 44 46  1  0
  4  5  1  0
 44 47  1  0
  5  6  1  0
 43 48  1  0
  6  1  1  0
 43 49  1  0
  4  7  1  0
 43 50  1  0
  2 51  1  0
  2 52  1  0
  3 53  1  0
  3 54  1  0
  4 55  1  0
  5 56  1  0
  5 57  1  0
  6 58  1  0
  6 59  1  0
  7 60  1  0
  8 61  1  0
  8 62  1  0
  9 63  1  0
  9 64  1  0
 10 65  1  0
 10 66  1  0
 11 67  1  0
 11 68  1  0
 18 69  1  0
 19 70  1  0
 20 71  1  0
 21 72  1  0
 22 73  1  0
 23 74  1  0
 24 75  1  0
 25 76  1  0
 27 77  1  0
 28 78  1  0
 28 79  1  0
 33 80  1  0
 34 81  1  0
 35 82  1  0
 36 83  1  0
 38 84  1  0
 39 85  1  0
 41 86  1  0
 42 87  1  0
M  END
> <Uni-Dock RESULT> 
ENERGY=   -4.028  LOWER_BOUND=    3.373  UPPER_BOUND=    4.175
INTER + INTRA:          -4.028
INTER:                  -4.028
INTRA:                   0.000
UNBOUND:                 0.000

$$$$
