
     RDKit          3D

 87 92  0  0  0  0  0  0  0  0999 V2000
   26.6750   10.0536   27.3864 N   0  0  0  0  0  0  0  0  0  0  0  0
   25.2343    9.8584   27.1485 C   0  0  0  0  0  0  0  0  0  0  0  0
   24.3470   10.4476   28.2417 C   0  0  0  0  0  0  0  0  0  0  0  0
   24.6605    9.8194   29.6064 C   0  0  0  0  0  0  0  0  0  0  0  0
   26.1029    9.3067   29.6892 C   0  0  0  0  0  0  0  0  0  0  0  0
   27.0241   10.1498   28.8133 C   0  0  0  0  0  0  0  0  0  0  0  0
   23.7313    8.7418   29.9226 N   0  0  0  0  0  0  0  0  0  0  0  0
   27.2011   11.1846   26.6037 C   0  0  0  0  0  0  0  0  0  0  0  0
   28.7304   11.3127   26.6663 C   0  0  0  0  0  0  0  0  0  0  0  0
   29.2245   12.4313   25.7423 C   0  0  0  0  0  0  0  0  0  0  0  0
   30.7518   12.5863   25.8258 C   0  0  0  0  0  0  0  0  0  0  0  0
   31.3639   13.6905   24.9263 C   0  0  0  0  0  0  0  0  0  0  0  0
   32.9077   13.7422   25.1142 C   0  0  0  0  0  0  0  0  0  0  0  0
   30.7350   15.0679   25.1876 C   0  0  0  0  0  0  0  0  0  0  0  0
   30.1342   15.5610   24.0071 C   0  0  0  0  0  0  0  0  0  0  0  0
   30.3110   14.5943   22.9436 C   0  0  0  0  0  0  0  0  0  0  0  0
   31.0243   13.4812   23.4421 C   0  0  0  0  0  0  0  0  0  0  0  0
   29.9058   14.6301   21.6198 C   0  0  0  0  0  0  0  0  0  0  0  0
   30.2192   13.5438   20.7964 C   0  0  0  0  0  0  0  0  0  0  0  0
   30.9287   12.4396   21.2969 C   0  0  0  0  0  0  0  0  0  0  0  0
   31.3387   12.4002   22.6299 C   0  0  0  0  0  0  0  0  0  0  0  0
   30.7192   15.7996   26.3668 C   0  0  0  0  0  0  0  0  0  0  0  0
   30.0891   17.0444   26.3585 C   0  0  0  0  0  0  0  0  0  0  0  0
   29.4899   17.5384   25.1882 C   0  0  0  0  0  0  0  0  0  0  0  0
   29.5095   16.7968   24.0027 C   0  0  0  0  0  0  0  0  0  0  0  0
   33.5289   12.9221   25.7898 O   0  0  0  0  0  0  0  0  0  0  0  0
   33.5606   14.7665   24.4540 N   0  0  0  0  0  0  0  0  0  0  0  0
   35.0206   14.8478   24.4328 C   0  0  0  0  0  0  0  0  0  0  0  0
   22.5026    8.9714   30.5004 C   0  0  0  0  0  0  0  0  0  0  0  0
   21.6381    7.7762   30.7080 C   0  0  0  0  0  0  0  0  0  0  0  0
   22.0855   10.0853   30.7965 O   0  0  0  0  0  0  0  0  0  0  0  0
   22.1059    6.5505   31.2337 C   0  0  0  0  0  0  0  0  0  0  0  0
   21.1809    5.4928   31.3503 C   0  0  0  0  0  0  0  0  0  0  0  0
   19.8433    5.6472   30.9760 C   0  0  0  0  0  0  0  0  0  0  0  0
   19.3947    6.8673   30.4826 C   0  0  0  0  0  0  0  0  0  0  0  0
   20.2866    7.9298   30.3530 C   0  0  0  0  0  0  0  0  0  0  0  0
   23.4863    6.3353   31.7024 C   0  0  0  0  0  0  0  0  0  0  0  0
   24.0146    7.0870   32.7635 C   0  0  0  0  0  0  0  0  0  0  0  0
   25.3333    6.9013   33.1887 C   0  0  0  0  0  0  0  0  0  0  0  0
   26.1558    5.9501   32.5689 C   0  0  0  0  0  0  0  0  0  0  0  0
   25.6312    5.1899   31.5146 C   0  0  0  0  0  0  0  0  0  0  0  0
   24.3117    5.3773   31.0911 C   0  0  0  0  0  0  0  0  0  0  0  0
   27.5842    5.7753   33.0238 C   0  0  0  0  0  0  0  0  0  0  0  0
   35.5763   16.2128   24.0381 C   0  0  0  0  0  0  0  0  0  0  0  0
   36.9230   16.1774   23.9302 F   0  0  0  0  0  0  0  0  0  0  0  0
   35.0800   16.6068   22.8418 F   0  0  0  0  0  0  0  0  0  0  0  0
   35.2609   17.1621   24.9460 F   0  0  0  0  0  0  0  0  0  0  0  0
   28.1910    4.6751   32.4964 F   0  0  0  0  0  0  0  0  0  0  0  0
   28.3692    6.8345   32.6821 F   0  0  0  0  0  0  0  0  0  0  0  0
   27.6937    5.6477   34.3757 F   0  0  0  0  0  0  0  0  0  0  0  0
   24.9300   10.2564   26.1725 H   0  0  0  0  0  0  0  0  0  0  0  0
   25.0493    8.7779   27.0877 H   0  0  0  0  0  0  0  0  0  0  0  0
   23.2912   10.3184   27.9765 H   0  0  0  0  0  0  0  0  0  0  0  0
   24.5229   11.5301   28.2934 H   0  0  0  0  0  0  0  0  0  0  0  0
   24.5204   10.5983   30.3674 H   0  0  0  0  0  0  0  0  0  0  0  0
   26.1680    8.2550   29.3780 H   0  0  0  0  0  0  0  0  0  0  0  0
   26.4422    9.3333   30.7318 H   0  0  0  0  0  0  0  0  0  0  0  0
   28.0539    9.8021   28.9547 H   0  0  0  0  0  0  0  0  0  0  0  0
   26.9785   11.1905   29.1614 H   0  0  0  0  0  0  0  0  0  0  0  0
   23.9366    7.8154   29.5711 H   0  0  0  0  0  0  0  0  0  0  0  0
   26.9276   11.0412   25.5504 H   0  0  0  0  0  0  0  0  0  0  0  0
   26.7368   12.1240   26.9305 H   0  0  0  0  0  0  0  0  0  0  0  0
   29.0544   11.5319   27.6903 H   0  0  0  0  0  0  0  0  0  0  0  0
   29.1939   10.3632   26.3714 H   0  0  0  0  0  0  0  0  0  0  0  0
   28.9228   12.2033   24.7139 H   0  0  0  0  0  0  0  0  0  0  0  0
   28.7328   13.3683   26.0266 H   0  0  0  0  0  0  0  0  0  0  0  0
   31.2104   11.6197   25.5759 H   0  0  0  0  0  0  0  0  0  0  0  0
   31.0225   12.7845   26.8721 H   0  0  0  0  0  0  0  0  0  0  0  0
   29.3559   15.4756   21.2199 H   0  0  0  0  0  0  0  0  0  0  0  0
   29.9078   13.5517   19.7541 H   0  0  0  0  0  0  0  0  0  0  0  0
   31.1586   11.6058   20.6369 H   0  0  0  0  0  0  0  0  0  0  0  0
   31.8870   11.5449   23.0139 H   0  0  0  0  0  0  0  0  0  0  0  0
   31.1849   15.4233   27.2726 H   0  0  0  0  0  0  0  0  0  0  0  0
   30.0622   17.6416   27.2676 H   0  0  0  0  0  0  0  0  0  0  0  0
   29.0046   18.5118   25.2056 H   0  0  0  0  0  0  0  0  0  0  0  0
   29.0420   17.1905   23.1064 H   0  0  0  0  0  0  0  0  0  0  0  0
   33.0423   15.2795   23.7456 H   0  0  0  0  0  0  0  0  0  0  0  0
   35.4050   14.5671   25.4190 H   0  0  0  0  0  0  0  0  0  0  0  0
   35.3647   14.0925   23.7181 H   0  0  0  0  0  0  0  0  0  0  0  0
   21.4983    4.5353   31.7615 H   0  0  0  0  0  0  0  0  0  0  0  0
   19.1498    4.8167   31.0857 H   0  0  0  0  0  0  0  0  0  0  0  0
   18.3520    6.9950   30.2031 H   0  0  0  0  0  0  0  0  0  0  0  0
   19.9308    8.8848   29.9693 H   0  0  0  0  0  0  0  0  0  0  0  0
   23.4007    7.8363   33.2628 H   0  0  0  0  0  0  0  0  0  0  0  0
   25.7175    7.5077   34.0082 H   0  0  0  0  0  0  0  0  0  0  0  0
   26.2489    4.4455   31.0132 H   0  0  0  0  0  0  0  0  0  0  0  0
   23.9331    4.7752   30.2663 H   0  0  0  0  0  0  0  0  0  0  0  0
  1  8  1  0
  8  9  1  0
  9 10  1  0
 10 11  1  0
 11 12  1  0
 12 13  1  0
 12 14  1  0
 14 15  2  0
 15 16  1  0
 16 17  1  0
 17 12  1  0
 16 18  2  0
 18 19  1  0
 19 20  2  0
 20 21  1  0
 21 17  2  0
 14 22  1  0
 22 23  2  0
 23 24  1  0
 24 25  2  0
 25 15  1  0
 13 26  2  0
 13 27  1  0
 27 28  1  0
  7 29  1  0
 29 30  1  0
 29 31  2  0
 30 32  1  0
 32 33  2  0
 33 34  1  0
 34 35  2  0
 35 36  1  0
 36 30  2  0
 32 37  1  0
 37 38  2  0
 38 39  1  0
 39 40  2  0
 40 41  1  0
 41 42  2  0
 42 37  1  0
 40 43  1  0
 28 44  1  0
  1  2  1  0
  2  3  1  0
 44 45  1  0
  3  4  1  0
 44 46  1  0
  4  5  1  0
 44 47  1  0
  5  6  1  0
 43 48  1  0
  6  1  1  0
 43 49  1  0
  4  7  1  0
 43 50  1  0
  2 51  1  0
  2 52  1  0
  3 53  1  0
  3 54  1  0
  4 55  1  0
  5 56  1  0
  5 57  1  0
  6 58  1  0
  6 59  1  0
  7 60  1  0
  8 61  1  0
  8 62  1  0
  9 63  1  0
  9 64  1  0
 10 65  1  0
 10 66  1  0
 11 67  1  0
 11 68  1  0
 18 69  1  0
 19 70  1  0
 20 71  1  0
 21 72  1  0
 22 73  1  0
 23 74  1  0
 24 75  1  0
 25 76  1  0
 27 77  1  0
 28 78  1  0
 28 79  1  0
 33 80  1  0
 34 81  1  0
 35 82  1  0
 36 83  1  0
 38 84  1  0
 39 85  1  0
 41 86  1  0
 42 87  1  0
M  END
> <Uni-Dock RESULT> 
ENERGY=   -4.313  LOWER_BOUND=    0.000  UPPER_BOUND=    0.000
INTER + INTRA:          -4.313
INTER:                  -4.313
INTRA:                   0.000
UNBOUND:                 0.000

$$$$

     RDKit          3D

 87 92  0  0  0  0  0  0  0  0999 V2000
   32.9306    9.6730   27.7631 N   0  0  0  0  0  0  0  0  0  0  0  0
   33.3144   10.8222   26.9251 C   0  0  0  0  0  0  0  0  0  0  0  0
   33.0442   12.1748   27.5785 C   0  0  0  0  0  0  0  0  0  0  0  0
   31.5543   12.3426   27.9064 C   0  0  0  0  0  0  0  0  0  0  0  0
   30.8548   10.9957   28.1228 C   0  0  0  0  0  0  0  0  0  0  0  0
   31.8288    9.9697   28.6931 C   0  0  0  0  0  0  0  0  0  0  0  0
   30.8634   13.1006   26.8708 N   0  0  0  0  0  0  0  0  0  0  0  0
   34.0984    9.0913   28.4459 C   0  0  0  0  0  0  0  0  0  0  0  0
   33.7868    7.7781   29.1790 C   0  0  0  0  0  0  0  0  0  0  0  0
   35.0615    7.1642   29.7685 C   0  0  0  0  0  0  0  0  0  0  0  0
   34.7508    5.8664   30.5319 C   0  0  0  0  0  0  0  0  0  0  0  0
   35.9716    5.1547   31.1693 C   0  0  0  0  0  0  0  0  0  0  0  0
   35.5149    3.8661   31.9124 C   0  0  0  0  0  0  0  0  0  0  0  0
   36.7570    6.0800   32.1117 C   0  0  0  0  0  0  0  0  0  0  0  0
   38.0889    6.2192   31.6594 C   0  0  0  0  0  0  0  0  0  0  0  0
   38.2646    5.4418   30.4505 C   0  0  0  0  0  0  0  0  0  0  0  0
   37.0456    4.8047   30.1271 C   0  0  0  0  0  0  0  0  0  0  0  0
   39.3815    5.2622   29.6517 C   0  0  0  0  0  0  0  0  0  0  0  0
   39.2713    4.4400   28.5256 C   0  0  0  0  0  0  0  0  0  0  0  0
   38.0572    3.8088   28.2086 C   0  0  0  0  0  0  0  0  0  0  0  0
   36.9300    3.9872   29.0111 C   0  0  0  0  0  0  0  0  0  0  0  0
   36.3136    6.7180   33.2617 C   0  0  0  0  0  0  0  0  0  0  0  0
   37.2227    7.5082   33.9660 C   0  0  0  0  0  0  0  0  0  0  0  0
   38.5470    7.6504   33.5201 C   0  0  0  0  0  0  0  0  0  0  0  0
   38.9882    7.0045   32.3609 C   0  0  0  0  0  0  0  0  0  0  0  0
   34.3616    3.4390   31.8671 O   0  0  0  0  0  0  0  0  0  0  0  0
   36.4963    3.2022   32.6249 N   0  0  0  0  0  0  0  0  0  0  0  0
   36.2350    1.9074   33.2524 C   0  0  0  0  0  0  0  0  0  0  0  0
   30.8408   14.4774   26.8537 C   0  0  0  0  0  0  0  0  0  0  0  0
   30.1457   15.1110   25.6985 C   0  0  0  0  0  0  0  0  0  0  0  0
   31.3911   15.1791   27.6946 O   0  0  0  0  0  0  0  0  0  0  0  0
   28.8922   14.6829   25.2055 C   0  0  0  0  0  0  0  0  0  0  0  0
   28.3638   15.3584   24.0863 C   0  0  0  0  0  0  0  0  0  0  0  0
   29.0418   16.4246   23.4890 C   0  0  0  0  0  0  0  0  0  0  0  0
   30.2631   16.8477   24.0016 C   0  0  0  0  0  0  0  0  0  0  0  0
   30.8116   16.1973   25.1049 C   0  0  0  0  0  0  0  0  0  0  0  0
   28.0957   13.6064   25.8204 C   0  0  0  0  0  0  0  0  0  0  0  0
   27.6323   13.7143   27.1408 C   0  0  0  0  0  0  0  0  0  0  0  0
   26.9007   12.6803   27.7323 C   0  0  0  0  0  0  0  0  0  0  0  0
   26.6047   11.5136   27.0133 C   0  0  0  0  0  0  0  0  0  0  0  0
   27.0569   11.4036   25.6912 C   0  0  0  0  0  0  0  0  0  0  0  0
   27.7885   12.4394   25.1017 C   0  0  0  0  0  0  0  0  0  0  0  0
   25.8328   10.3961   27.6713 C   0  0  0  0  0  0  0  0  0  0  0  0
   37.2451    1.5034   34.3222 C   0  0  0  0  0  0  0  0  0  0  0  0
   37.0036    0.2519   34.7718 F   0  0  0  0  0  0  0  0  0  0  0  0
   38.5048    1.5245   33.8270 F   0  0  0  0  0  0  0  0  0  0  0  0
   37.2077    2.3368   35.3848 F   0  0  0  0  0  0  0  0  0  0  0  0
   25.4238    9.4322   26.7992 F   0  0  0  0  0  0  0  0  0  0  0  0
   26.5642    9.7527   28.6230 F   0  0  0  0  0  0  0  0  0  0  0  0
   24.7045   10.8337   28.2970 F   0  0  0  0  0  0  0  0  0  0  0  0
   34.3664   10.7641   26.6196 H   0  0  0  0  0  0  0  0  0  0  0  0
   32.7408   10.7606   25.9909 H   0  0  0  0  0  0  0  0  0  0  0  0
   33.4029   12.9821   26.9293 H   0  0  0  0  0  0  0  0  0  0  0  0
   33.6279   12.2412   28.5061 H   0  0  0  0  0  0  0  0  0  0  0  0
   31.4850   12.9273   28.8331 H   0  0  0  0  0  0  0  0  0  0  0  0
   30.4329   10.6131   27.1833 H   0  0  0  0  0  0  0  0  0  0  0  0
   30.0041   11.1294   28.8021 H   0  0  0  0  0  0  0  0  0  0  0  0
   31.2781    9.0456   28.9032 H   0  0  0  0  0  0  0  0  0  0  0  0
   32.2116   10.3483   29.6505 H   0  0  0  0  0  0  0  0  0  0  0  0
   30.5173   12.5997   26.0626 H   0  0  0  0  0  0  0  0  0  0  0  0
   34.8711    8.8728   27.6974 H   0  0  0  0  0  0  0  0  0  0  0  0
   34.5293    9.8153   29.1495 H   0  0  0  0  0  0  0  0  0  0  0  0
   33.0715    7.9536   29.9909 H   0  0  0  0  0  0  0  0  0  0  0  0
   33.3258    7.0661   28.4833 H   0  0  0  0  0  0  0  0  0  0  0  0
   35.7697    6.9654   28.9564 H   0  0  0  0  0  0  0  0  0  0  0  0
   35.5292    7.8945   30.4380 H   0  0  0  0  0  0  0  0  0  0  0  0
   34.2463    5.1741   29.8439 H   0  0  0  0  0  0  0  0  0  0  0  0
   34.0177    6.0947   31.3179 H   0  0  0  0  0  0  0  0  0  0  0  0
   40.3253    5.7446   29.8834 H   0  0  0  0  0  0  0  0  0  0  0  0
   40.1367    4.2880   27.8840 H   0  0  0  0  0  0  0  0  0  0  0  0
   37.9963    3.1756   27.3259 H   0  0  0  0  0  0  0  0  0  0  0  0
   35.9926    3.4979   28.7632 H   0  0  0  0  0  0  0  0  0  0  0  0
   35.2920    6.6074   33.6122 H   0  0  0  0  0  0  0  0  0  0  0  0
   36.9044    8.0193   34.8721 H   0  0  0  0  0  0  0  0  0  0  0  0
   39.2380    8.2715   34.0858 H   0  0  0  0  0  0  0  0  0  0  0  0
   40.0138    7.1240   32.0278 H   0  0  0  0  0  0  0  0  0  0  0  0
   37.4636    3.4669   32.4582 H   0  0  0  0  0  0  0  0  0  0  0  0
   35.2290    1.9202   33.6848 H   0  0  0  0  0  0  0  0  0  0  0  0
   36.2380    1.1644   32.4477 H   0  0  0  0  0  0  0  0  0  0  0  0
   27.3950   15.0671   23.6824 H   0  0  0  0  0  0  0  0  0  0  0  0
   28.6058   16.9332   22.6323 H   0  0  0  0  0  0  0  0  0  0  0  0
   30.7868   17.6853   23.5479 H   0  0  0  0  0  0  0  0  0  0  0  0
   31.7667   16.5338   25.5055 H   0  0  0  0  0  0  0  0  0  0  0  0
   27.8495   14.6075   27.7262 H   0  0  0  0  0  0  0  0  0  0  0  0
   26.5640   12.7897   28.7625 H   0  0  0  0  0  0  0  0  0  0  0  0
   26.8435   10.5070   25.1101 H   0  0  0  0  0  0  0  0  0  0  0  0
   28.1307   12.3236   24.0742 H   0  0  0  0  0  0  0  0  0  0  0  0
  1  8  1  0
  8  9  1  0
  9 10  1  0
 10 11  1  0
 11 12  1  0
 12 13  1  0
 12 14  1  0
 14 15  2  0
 15 16  1  0
 16 17  1  0
 17 12  1  0
 16 18  2  0
 18 19  1  0
 19 20  2  0
 20 21  1  0
 21 17  2  0
 14 22  1  0
 22 23  2  0
 23 24  1  0
 24 25  2  0
 25 15  1  0
 13 26  2  0
 13 27  1  0
 27 28  1  0
  7 29  1  0
 29 30  1  0
 29 31  2  0
 30 32  1  0
 32 33  2  0
 33 34  1  0
 34 35  2  0
 35 36  1  0
 36 30  2  0
 32 37  1  0
 37 38  2  0
 38 39  1  0
 39 40  2  0
 40 41  1  0
 41 42  2  0
 42 37  1  0
 40 43  1  0
 28 44  1  0
  1  2  1  0
  2  3  1  0
 44 45  1  0
  3  4  1  0
 44 46  1  0
  4  5  1  0
 44 47  1  0
  5  6  1  0
 43 48  1  0
  6  1  1  0
 43 49  1  0
  4  7  1  0
 43 50  1  0
  2 51  1  0
  2 52  1  0
  3 53  1  0
  3 54  1  0
  4 55  1  0
  5 56  1  0
  5 57  1  0
  6 58  1  0
  6 59  1  0
  7 60  1  0
  8 61  1  0
  8 62  1  0
  9 63  1  0
  9 64  1  0
 10 65  1  0
 10 66  1  0
 11 67  1  0
 11 68  1  0
 18 69  1  0
 19 70  1  0
 20 71  1  0
 21 72  1  0
 22 73  1  0
 23 74  1  0
 24 75  1  0
 25 76  1  0
 27 77  1  0
 28 78  1  0
 28 79  1  0
 33 80  1  0
 34 81  1  0
 35 82  1  0
 36 83  1  0
 38 84  1  0
 39 85  1  0
 41 86  1  0
 42 87  1  0
M  END
> <Uni-Dock RESULT> 
ENERGY=   -4.156  LOWER_BOUND=    7.463  UPPER_BOUND=   12.202
INTER + INTRA:          -4.156
INTER:                  -4.156
INTRA:                   0.000
UNBOUND:                 0.000

$$$$

     RDKit          3D

 87 92  0  0  0  0  0  0  0  0999 V2000
   33.8556   13.4960   24.0602 N   0  0  0  0  0  0  0  0  0  0  0  0
   33.7735   14.8079   23.3949 C   0  0  0  0  0  0  0  0  0  0  0  0
   32.3465   15.3243   23.2318 C   0  0  0  0  0  0  0  0  0  0  0  0
   31.4981   14.3517   22.4013 C   0  0  0  0  0  0  0  0  0  0  0  0
   32.0105   12.9100   22.4981 C   0  0  0  0  0  0  0  0  0  0  0  0
   32.6609   12.6607   23.8551 C   0  0  0  0  0  0  0  0  0  0  0  0
   31.4314   14.7626   21.0045 N   0  0  0  0  0  0  0  0  0  0  0  0
   34.2033   13.6359   25.4843 C   0  0  0  0  0  0  0  0  0  0  0  0
   34.4890   12.2959   26.1784 C   0  0  0  0  0  0  0  0  0  0  0  0
   34.9569   12.5155   27.6213 C   0  0  0  0  0  0  0  0  0  0  0  0
   35.2128   11.1764   28.3318 C   0  0  0  0  0  0  0  0  0  0  0  0
   35.6957   11.2785   29.8013 C   0  0  0  0  0  0  0  0  0  0  0  0
   35.9077    9.8568   30.3974 C   0  0  0  0  0  0  0  0  0  0  0  0
   34.7330   12.0989   30.6738 C   0  0  0  0  0  0  0  0  0  0  0  0
   35.4029   13.2178   31.2188 C   0  0  0  0  0  0  0  0  0  0  0  0
   36.7781   13.2165   30.7652 C   0  0  0  0  0  0  0  0  0  0  0  0
   36.9898   12.0975   29.9289 C   0  0  0  0  0  0  0  0  0  0  0  0
   37.8135   14.0965   31.0323 C   0  0  0  0  0  0  0  0  0  0  0  0
   39.0642   13.8497   30.4567 C   0  0  0  0  0  0  0  0  0  0  0  0
   39.2696   12.7357   29.6262 C   0  0  0  0  0  0  0  0  0  0  0  0
   38.2288   11.8469   29.3551 C   0  0  0  0  0  0  0  0  0  0  0  0
   33.3961   11.8508   30.9518 C   0  0  0  0  0  0  0  0  0  0  0  0
   32.7234   12.7415   31.7889 C   0  0  0  0  0  0  0  0  0  0  0  0
   33.3845   13.8553   32.3323 C   0  0  0  0  0  0  0  0  0  0  0  0
   34.7319   14.0998   32.0490 C   0  0  0  0  0  0  0  0  0  0  0  0
   35.8194    8.8285   29.7268 O   0  0  0  0  0  0  0  0  0  0  0  0
   36.2256    9.8090   31.7420 N   0  0  0  0  0  0  0  0  0  0  0  0
   36.5861    8.5501   32.3932 C   0  0  0  0  0  0  0  0  0  0  0  0
   30.5156   15.6844   20.5484 C   0  0  0  0  0  0  0  0  0  0  0  0
   30.6091   16.0489   19.1071 C   0  0  0  0  0  0  0  0  0  0  0  0
   29.6867   16.2342   21.2646 O   0  0  0  0  0  0  0  0  0  0  0  0
   30.7808   15.1061   18.0682 C   0  0  0  0  0  0  0  0  0  0  0  0
   30.8808   15.5958   16.7499 C   0  0  0  0  0  0  0  0  0  0  0  0
   30.7988   16.9625   16.4698 C   0  0  0  0  0  0  0  0  0  0  0  0
   30.6062   17.8743   17.5017 C   0  0  0  0  0  0  0  0  0  0  0  0
   30.5069   17.4201   18.8150 C   0  0  0  0  0  0  0  0  0  0  0  0
   30.8168   13.6488   18.2840 C   0  0  0  0  0  0  0  0  0  0  0  0
   29.7147   12.9715   18.8286 C   0  0  0  0  0  0  0  0  0  0  0  0
   29.7604   11.5934   19.0588 C   0  0  0  0  0  0  0  0  0  0  0  0
   30.9084   10.8543   18.7402 C   0  0  0  0  0  0  0  0  0  0  0  0
   32.0091   11.5235   18.1876 C   0  0  0  0  0  0  0  0  0  0  0  0
   31.9609   12.9021   17.9581 C   0  0  0  0  0  0  0  0  0  0  0  0
   30.9520    9.3708   19.0142 C   0  0  0  0  0  0  0  0  0  0  0  0
   36.5056    8.5759   33.9166 C   0  0  0  0  0  0  0  0  0  0  0  0
   36.9611    7.4195   34.4477 F   0  0  0  0  0  0  0  0  0  0  0  0
   37.2575    9.5823   34.4212 F   0  0  0  0  0  0  0  0  0  0  0  0
   35.2377    8.7551   34.3470 F   0  0  0  0  0  0  0  0  0  0  0  0
   32.0258    8.7467   18.4535 F   0  0  0  0  0  0  0  0  0  0  0  0
   31.0116    9.0923   20.3459 F   0  0  0  0  0  0  0  0  0  0  0  0
   29.8541    8.7164   18.5425 F   0  0  0  0  0  0  0  0  0  0  0  0
   34.3808   15.5605   23.9127 H   0  0  0  0  0  0  0  0  0  0  0  0
   34.2282   14.7071   22.4007 H   0  0  0  0  0  0  0  0  0  0  0  0
   32.3597   16.3246   22.7834 H   0  0  0  0  0  0  0  0  0  0  0  0
   31.8964   15.4372   24.2269 H   0  0  0  0  0  0  0  0  0  0  0  0
   30.4744   14.3879   22.7964 H   0  0  0  0  0  0  0  0  0  0  0  0
   32.7360   12.6932   21.7020 H   0  0  0  0  0  0  0  0  0  0  0  0
   31.1773   12.2137   22.3434 H   0  0  0  0  0  0  0  0  0  0  0  0
   32.9472   11.6044   23.9155 H   0  0  0  0  0  0  0  0  0  0  0  0
   31.9127   12.8431   24.6382 H   0  0  0  0  0  0  0  0  0  0  0  0
   32.1761   14.4710   20.3846 H   0  0  0  0  0  0  0  0  0  0  0  0
   35.1113   14.2473   25.5665 H   0  0  0  0  0  0  0  0  0  0  0  0
   33.4080   14.1692   26.0209 H   0  0  0  0  0  0  0  0  0  0  0  0
   33.5881   11.6716   26.1907 H   0  0  0  0  0  0  0  0  0  0  0  0
   35.2605   11.7484   25.6231 H   0  0  0  0  0  0  0  0  0  0  0  0
   35.8710   13.1196   27.6115 H   0  0  0  0  0  0  0  0  0  0  0  0
   34.1927   13.0887   28.1579 H   0  0  0  0  0  0  0  0  0  0  0  0
   35.9509   10.6111   27.7463 H   0  0  0  0  0  0  0  0  0  0  0  0
   34.2874   10.5848   28.2982 H   0  0  0  0  0  0  0  0  0  0  0  0
   37.6691   14.9618   31.6706 H   0  0  0  0  0  0  0  0  0  0  0  0
   39.8899   14.5305   30.6524 H   0  0  0  0  0  0  0  0  0  0  0  0
   40.2512   12.5666   29.1886 H   0  0  0  0  0  0  0  0  0  0  0  0
   38.3907   10.9866   28.7123 H   0  0  0  0  0  0  0  0  0  0  0  0
   32.8824   10.9887   30.5372 H   0  0  0  0  0  0  0  0  0  0  0  0
   31.6752   12.5721   32.0261 H   0  0  0  0  0  0  0  0  0  0  0  0
   32.8395   14.5360   32.9826 H   0  0  0  0  0  0  0  0  0  0  0  0
   35.2297   14.9645   32.4752 H   0  0  0  0  0  0  0  0  0  0  0  0
   36.4966   10.6774   32.1958 H   0  0  0  0  0  0  0  0  0  0  0  0
   35.9416    7.7540   32.0058 H   0  0  0  0  0  0  0  0  0  0  0  0
   37.6121    8.3222   32.0851 H   0  0  0  0  0  0  0  0  0  0  0  0
   31.0022   14.9015   15.9193 H   0  0  0  0  0  0  0  0  0  0  0  0
   30.8701   17.3111   15.4421 H   0  0  0  0  0  0  0  0  0  0  0  0
   30.5285   18.9370   17.2861 H   0  0  0  0  0  0  0  0  0  0  0  0
   30.3528   18.1370   19.6202 H   0  0  0  0  0  0  0  0  0  0  0  0
   28.8095   13.5193   19.0897 H   0  0  0  0  0  0  0  0  0  0  0  0
   28.8924   11.0982   19.4925 H   0  0  0  0  0  0  0  0  0  0  0  0
   32.9150   10.9743   17.9329 H   0  0  0  0  0  0  0  0  0  0  0  0
   32.8333   13.3956   17.5319 H   0  0  0  0  0  0  0  0  0  0  0  0
  1  8  1  0
  8  9  1  0
  9 10  1  0
 10 11  1  0
 11 12  1  0
 12 13  1  0
 12 14  1  0
 14 15  2  0
 15 16  1  0
 16 17  1  0
 17 12  1  0
 16 18  2  0
 18 19  1  0
 19 20  2  0
 20 21  1  0
 21 17  2  0
 14 22  1  0
 22 23  2  0
 23 24  1  0
 24 25  2  0
 25 15  1  0
 13 26  2  0
 13 27  1  0
 27 28  1  0
  7 29  1  0
 29 30  1  0
 29 31  2  0
 30 32  1  0
 32 33  2  0
 33 34  1  0
 34 35  2  0
 35 36  1  0
 36 30  2  0
 32 37  1  0
 37 38  2  0
 38 39  1  0
 39 40  2  0
 40 41  1  0
 41 42  2  0
 42 37  1  0
 40 43  1  0
 28 44  1  0
  1  2  1  0
  2  3  1  0
 44 45  1  0
  3  4  1  0
 44 46  1  0
  4  5  1  0
 44 47  1  0
  5  6  1  0
 43 48  1  0
  6  1  1  0
 43 49  1  0
  4  7  1  0
 43 50  1  0
  2 51  1  0
  2 52  1  0
  3 53  1  0
  3 54  1  0
  4 55  1  0
  5 56  1  0
  5 57  1  0
  6 58  1  0
  6 59  1  0
  7 60  1  0
  8 61  1  0
  8 62  1  0
  9 63  1  0
  9 64  1  0
 10 65  1  0
 10 66  1  0
 11 67  1  0
 11 68  1  0
 18 69  1  0
 19 70  1  0
 20 71  1  0
 21 72  1  0
 22 73  1  0
 23 74  1  0
 24 75  1  0
 25 76  1  0
 27 77  1  0
 28 78  1  0
 28 79  1  0
 33 80  1  0
 34 81  1  0
 35 82  1  0
 36 83  1  0
 38 84  1  0
 39 85  1  0
 41 86  1  0
 42 87  1  0
M  END
> <Uni-Dock RESULT> 
ENERGY=   -4.141  LOWER_BOUND=    8.250  UPPER_BOUND=   12.767
INTER + INTRA:          -4.141
INTER:                  -4.141
INTRA:                   0.000
UNBOUND:                 0.000

$$$$

     RDKit          3D

 87 92  0  0  0  0  0  0  0  0999 V2000
   30.7079    7.4334   30.9231 N   0  0  0  0  0  0  0  0  0  0  0  0
   31.2444    6.0836   31.1691 C   0  0  0  0  0  0  0  0  0  0  0  0
   30.7395    5.0340   30.1827 C   0  0  0  0  0  0  0  0  0  0  0  0
   29.2098    4.9194   30.2324 C   0  0  0  0  0  0  0  0  0  0  0  0
   28.5474    6.2210   30.6985 C   0  0  0  0  0  0  0  0  0  0  0  0
   29.3824    7.4279   30.2827 C   0  0  0  0  0  0  0  0  0  0  0  0
   28.7861    3.8141   31.0828 N   0  0  0  0  0  0  0  0  0  0  0  0
   31.6764    8.2735   30.1986 C   0  0  0  0  0  0  0  0  0  0  0  0
   31.2459    9.7434   30.0846 C   0  0  0  0  0  0  0  0  0  0  0  0
   32.3439   10.5861   29.4263 C   0  0  0  0  0  0  0  0  0  0  0  0
   31.9054   12.0523   29.2793 C   0  0  0  0  0  0  0  0  0  0  0  0
   32.9437   13.0005   28.6268 C   0  0  0  0  0  0  0  0  0  0  0  0
   32.3697   14.4439   28.5343 C   0  0  0  0  0  0  0  0  0  0  0  0
   33.3975   12.5032   27.2456 C   0  0  0  0  0  0  0  0  0  0  0  0
   34.7931   12.2794   27.2428 C   0  0  0  0  0  0  0  0  0  0  0  0
   35.3278   12.5919   28.5518 C   0  0  0  0  0  0  0  0  0  0  0  0
   34.2753   13.0153   29.3940 C   0  0  0  0  0  0  0  0  0  0  0  0
   36.6264   12.5345   29.0293 C   0  0  0  0  0  0  0  0  0  0  0  0
   36.8661   12.9039   30.3569 C   0  0  0  0  0  0  0  0  0  0  0  0
   35.8163   13.3243   31.1901 C   0  0  0  0  0  0  0  0  0  0  0  0
   34.5068   13.3836   30.7122 C   0  0  0  0  0  0  0  0  0  0  0  0
   32.6285   12.2875   26.1106 C   0  0  0  0  0  0  0  0  0  0  0  0
   33.2724   11.8392   24.9568 C   0  0  0  0  0  0  0  0  0  0  0  0
   34.6589   11.6145   24.9493 C   0  0  0  0  0  0  0  0  0  0  0  0
   35.4287   11.8342   26.0959 C   0  0  0  0  0  0  0  0  0  0  0  0
   31.2946   14.7715   29.0360 O   0  0  0  0  0  0  0  0  0  0  0  0
   33.1550   15.3621   27.8624 N   0  0  0  0  0  0  0  0  0  0  0  0
   32.8005   16.7804   27.8231 C   0  0  0  0  0  0  0  0  0  0  0  0
   28.6988    2.5191   30.6226 C   0  0  0  0  0  0  0  0  0  0  0  0
   28.3097    1.4881   31.6250 C   0  0  0  0  0  0  0  0  0  0  0  0
   28.9654    2.1839   29.4742 O   0  0  0  0  0  0  0  0  0  0  0  0
   27.2592    1.6549   32.5556 C   0  0  0  0  0  0  0  0  0  0  0  0
   27.0185    0.6054   33.4659 C   0  0  0  0  0  0  0  0  0  0  0  0
   27.7772   -0.5680   33.4456 C   0  0  0  0  0  0  0  0  0  0  0  0
   28.7918   -0.7250   32.5078 C   0  0  0  0  0  0  0  0  0  0  0  0
   29.0548    0.2965   31.5976 C   0  0  0  0  0  0  0  0  0  0  0  0
   26.3823    2.8385   32.5958 C   0  0  0  0  0  0  0  0  0  0  0  0
   25.5750    3.1773   31.4988 C   0  0  0  0  0  0  0  0  0  0  0  0
   24.7647    4.3161   31.5276 C   0  0  0  0  0  0  0  0  0  0  0  0
   24.7334    5.1413   32.6606 C   0  0  0  0  0  0  0  0  0  0  0  0
   25.5305    4.8032   33.7629 C   0  0  0  0  0  0  0  0  0  0  0  0
   26.3402    3.6635   33.7317 C   0  0  0  0  0  0  0  0  0  0  0  0
   23.8706    6.3795   32.6699 C   0  0  0  0  0  0  0  0  0  0  0  0
   33.5039   17.5821   26.7319 C   0  0  0  0  0  0  0  0  0  0  0  0
   33.2142   18.8984   26.8317 F   0  0  0  0  0  0  0  0  0  0  0  0
   34.8477   17.4502   26.8284 F   0  0  0  0  0  0  0  0  0  0  0  0
   33.1389   17.1728   25.4973 F   0  0  0  0  0  0  0  0  0  0  0  0
   23.7617    6.9559   33.8998 F   0  0  0  0  0  0  0  0  0  0  0  0
   24.3500    7.3502   31.8437 F   0  0  0  0  0  0  0  0  0  0  0  0
   22.5946    6.1344   32.2602 F   0  0  0  0  0  0  0  0  0  0  0  0
   32.3414    6.0822   31.1792 H   0  0  0  0  0  0  0  0  0  0  0  0
   30.9480    5.7862   32.1836 H   0  0  0  0  0  0  0  0  0  0  0  0
   31.2183    4.0689   30.3858 H   0  0  0  0  0  0  0  0  0  0  0  0
   31.0472    5.3251   29.1698 H   0  0  0  0  0  0  0  0  0  0  0  0
   28.8634    4.6936   29.2153 H   0  0  0  0  0  0  0  0  0  0  0  0
   28.4146    6.2294   31.7890 H   0  0  0  0  0  0  0  0  0  0  0  0
   27.5394    6.2925   30.2722 H   0  0  0  0  0  0  0  0  0  0  0  0
   28.8433    8.3390   30.5663 H   0  0  0  0  0  0  0  0  0  0  0  0
   29.4731    7.4276   29.1881 H   0  0  0  0  0  0  0  0  0  0  0  0
   28.6968    3.9828   32.0765 H   0  0  0  0  0  0  0  0  0  0  0  0
   32.6324    8.2533   30.7377 H   0  0  0  0  0  0  0  0  0  0  0  0
   31.8640    7.8635   29.1978 H   0  0  0  0  0  0  0  0  0  0  0  0
   30.3301    9.8287   29.4882 H   0  0  0  0  0  0  0  0  0  0  0  0
   31.0265   10.1434   31.0822 H   0  0  0  0  0  0  0  0  0  0  0  0
   33.2541   10.5221   30.0329 H   0  0  0  0  0  0  0  0  0  0  0  0
   32.5758   10.1601   28.4438 H   0  0  0  0  0  0  0  0  0  0  0  0
   31.6411   12.4343   30.2750 H   0  0  0  0  0  0  0  0  0  0  0  0
   30.9768   12.0783   28.6925 H   0  0  0  0  0  0  0  0  0  0  0  0
   37.4469   12.2103   28.3978 H   0  0  0  0  0  0  0  0  0  0  0  0
   37.8790   12.8635   30.7518 H   0  0  0  0  0  0  0  0  0  0  0  0
   36.0280   13.6045   32.2198 H   0  0  0  0  0  0  0  0  0  0  0  0
   33.6972   13.7088   31.3590 H   0  0  0  0  0  0  0  0  0  0  0  0
   31.5572   12.4640   26.1109 H   0  0  0  0  0  0  0  0  0  0  0  0
   32.6959   11.6629   24.0512 H   0  0  0  0  0  0  0  0  0  0  0  0
   35.1391   11.2651   24.0380 H   0  0  0  0  0  0  0  0  0  0  0  0
   36.4986   11.6557   26.0758 H   0  0  0  0  0  0  0  0  0  0  0  0
   34.1166   15.1033   27.6580 H   0  0  0  0  0  0  0  0  0  0  0  0
   31.7159   16.8709   27.7025 H   0  0  0  0  0  0  0  0  0  0  0  0
   33.0583   17.1938   28.8040 H   0  0  0  0  0  0  0  0  0  0  0  0
   26.2106    0.6894   34.1919 H   0  0  0  0  0  0  0  0  0  0  0  0
   27.5631   -1.3650   34.1539 H   0  0  0  0  0  0  0  0  0  0  0  0
   29.3751   -1.6419   32.4804 H   0  0  0  0  0  0  0  0  0  0  0  0
   29.8480    0.1685   30.8625 H   0  0  0  0  0  0  0  0  0  0  0  0
   25.5805    2.5574   30.6025 H   0  0  0  0  0  0  0  0  0  0  0  0
   24.1575    4.5581   30.6561 H   0  0  0  0  0  0  0  0  0  0  0  0
   25.5277    5.4281   34.6555 H   0  0  0  0  0  0  0  0  0  0  0  0
   26.9522    3.4287   34.6015 H   0  0  0  0  0  0  0  0  0  0  0  0
  1  8  1  0
  8  9  1  0
  9 10  1  0
 10 11  1  0
 11 12  1  0
 12 13  1  0
 12 14  1  0
 14 15  2  0
 15 16  1  0
 16 17  1  0
 17 12  1  0
 16 18  2  0
 18 19  1  0
 19 20  2  0
 20 21  1  0
 21 17  2  0
 14 22  1  0
 22 23  2  0
 23 24  1  0
 24 25  2  0
 25 15  1  0
 13 26  2  0
 13 27  1  0
 27 28  1  0
  7 29  1  0
 29 30  1  0
 29 31  2  0
 30 32  1  0
 32 33  2  0
 33 34  1  0
 34 35  2  0
 35 36  1  0
 36 30  2  0
 32 37  1  0
 37 38  2  0
 38 39  1  0
 39 40  2  0
 40 41  1  0
 41 42  2  0
 42 37  1  0
 40 43  1  0
 28 44  1  0
  1  2  1  0
  2  3  1  0
 44 45  1  0
  3  4  1  0
 44 46  1  0
  4  5  1  0
 44 47  1  0
  5  6  1  0
 43 48  1  0
  6  1  1  0
 43 49  1  0
  4  7  1  0
 43 50  1  0
  2 51  1  0
  2 52  1  0
  3 53  1  0
  3 54  1  0
  4 55  1  0
  5 56  1  0
  5 57  1  0
  6 58  1  0
  6 59  1  0
  7 60  1  0
  8 61  1  0
  8 62  1  0
  9 63  1  0
  9 64  1  0
 10 65  1  0
 10 66  1  0
 11 67  1  0
 11 68  1  0
 18 69  1  0
 19 70  1  0
 20 71  1  0
 21 72  1  0
 22 73  1  0
 23 74  1  0
 24 75  1  0
 25 76  1  0
 27 77  1  0
 28 78  1  0
 28 79  1  0
 33 80  1  0
 34 81  1  0
 35 82  1  0
 36 83  1  0
 38 84  1  0
 39 85  1  0
 41 86  1  0
 42 87  1  0
M  END
> <Uni-Dock RESULT> 
ENERGY=   -4.067  LOWER_BOUND=    4.379  UPPER_BOUND=    6.762
INTER + INTRA:          -4.067
INTER:                  -4.067
INTRA:                   0.000
UNBOUND:                 0.000

$$$$

     RDKit          3D

 87 92  0  0  0  0  0  0  0  0999 V2000
   31.8566    9.0636   27.3348 N   0  0  0  0  0  0  0  0  0  0  0  0
   33.1136    9.8230   27.2177 C   0  0  0  0  0  0  0  0  0  0  0  0
   32.9940   11.2786   27.6610 C   0  0  0  0  0  0  0  0  0  0  0  0
   31.9446   12.0260   26.8270 C   0  0  0  0  0  0  0  0  0  0  0  0
   30.8726   11.0836   26.2676 C   0  0  0  0  0  0  0  0  0  0  0  0
   30.6532    9.9015   27.2064 C   0  0  0  0  0  0  0  0  0  0  0  0
   32.5632   12.7754   25.7406 N   0  0  0  0  0  0  0  0  0  0  0  0
   31.8376    8.2396   28.5552 C   0  0  0  0  0  0  0  0  0  0  0  0
   30.6368    7.2849   28.6298 C   0  0  0  0  0  0  0  0  0  0  0  0
   30.7355    6.3760   29.8599 C   0  0  0  0  0  0  0  0  0  0  0  0
   29.5193    5.4406   29.9580 C   0  0  0  0  0  0  0  0  0  0  0  0
   29.5153    4.4704   31.1670 C   0  0  0  0  0  0  0  0  0  0  0  0
   28.2311    3.5919   31.1469 C   0  0  0  0  0  0  0  0  0  0  0  0
   29.6504    5.2106   32.5067 C   0  0  0  0  0  0  0  0  0  0  0  0
   30.8108    4.7777   33.1877 C   0  0  0  0  0  0  0  0  0  0  0  0
   31.4882    3.7795   32.3866 C   0  0  0  0  0  0  0  0  0  0  0  0
   30.7626    3.5728   31.1919 C   0  0  0  0  0  0  0  0  0  0  0  0
   32.6505    3.0677   32.6316 C   0  0  0  0  0  0  0  0  0  0  0  0
   33.0833    2.1462   31.6725 C   0  0  0  0  0  0  0  0  0  0  0  0
   32.3583    1.9442   30.4865 C   0  0  0  0  0  0  0  0  0  0  0  0
   31.1868    2.6595   30.2364 C   0  0  0  0  0  0  0  0  0  0  0  0
   28.8052    6.1660   33.0537 C   0  0  0  0  0  0  0  0  0  0  0  0
   29.1330    6.6943   34.3028 C   0  0  0  0  0  0  0  0  0  0  0  0
   30.2855    6.2680   34.9830 C   0  0  0  0  0  0  0  0  0  0  0  0
   31.1330    5.3045   34.4271 C   0  0  0  0  0  0  0  0  0  0  0  0
   27.4239    3.6053   30.2178 O   0  0  0  0  0  0  0  0  0  0  0  0
   28.0502    2.7650   32.2399 N   0  0  0  0  0  0  0  0  0  0  0  0
   26.9615    1.7895   32.2827 C   0  0  0  0  0  0  0  0  0  0  0  0
   33.0784   14.0404   25.9152 C   0  0  0  0  0  0  0  0  0  0  0  0
   33.7335   14.6552   24.7270 C   0  0  0  0  0  0  0  0  0  0  0  0
   33.0638   14.6414   26.9834 O   0  0  0  0  0  0  0  0  0  0  0  0
   33.1875   14.6208   23.4238 C   0  0  0  0  0  0  0  0  0  0  0  0
   33.9307   15.2210   22.3868 C   0  0  0  0  0  0  0  0  0  0  0  0
   35.1575   15.8436   22.6327 C   0  0  0  0  0  0  0  0  0  0  0  0
   35.6686   15.8888   23.9250 C   0  0  0  0  0  0  0  0  0  0  0  0
   34.9581   15.3014   24.9696 C   0  0  0  0  0  0  0  0  0  0  0  0
   31.8745   14.0342   23.1024 C   0  0  0  0  0  0  0  0  0  0  0  0
   30.6968   14.5433   23.6716 C   0  0  0  0  0  0  0  0  0  0  0  0
   29.4547   13.9681   23.3876 C   0  0  0  0  0  0  0  0  0  0  0  0
   29.3574   12.8732   22.5174 C   0  0  0  0  0  0  0  0  0  0  0  0
   30.5290   12.3660   21.9386 C   0  0  0  0  0  0  0  0  0  0  0  0
   31.7703   12.9431   22.2241 C   0  0  0  0  0  0  0  0  0  0  0  0
   28.0127   12.2484   22.2367 C   0  0  0  0  0  0  0  0  0  0  0  0
   26.6391    1.2562   33.6754 C   0  0  0  0  0  0  0  0  0  0  0  0
   25.7058    0.2804   33.6190 F   0  0  0  0  0  0  0  0  0  0  0  0
   27.7436    0.7331   34.2578 F   0  0  0  0  0  0  0  0  0  0  0  0
   26.1691    2.2290   34.4864 F   0  0  0  0  0  0  0  0  0  0  0  0
   28.0344   11.3510   21.2114 F   0  0  0  0  0  0  0  0  0  0  0  0
   27.5209   11.5738   23.3128 F   0  0  0  0  0  0  0  0  0  0  0  0
   27.0642   13.1684   21.9050 F   0  0  0  0  0  0  0  0  0  0  0  0
   33.9301    9.3368   27.7658 H   0  0  0  0  0  0  0  0  0  0  0  0
   33.4213    9.7989   26.1641 H   0  0  0  0  0  0  0  0  0  0  0  0
   33.9727   11.7690   27.6025 H   0  0  0  0  0  0  0  0  0  0  0  0
   32.6988   11.3022   28.7183 H   0  0  0  0  0  0  0  0  0  0  0  0
   31.4597   12.7574   27.4867 H   0  0  0  0  0  0  0  0  0  0  0  0
   31.1530   10.7105   25.2730 H   0  0  0  0  0  0  0  0  0  0  0  0
   29.9353   11.6361   26.1283 H   0  0  0  0  0  0  0  0  0  0  0  0
   29.8319    9.2917   26.8129 H   0  0  0  0  0  0  0  0  0  0  0  0
   30.3354   10.2882   28.1841 H   0  0  0  0  0  0  0  0  0  0  0  0
   32.7499   12.2912   24.8719 H   0  0  0  0  0  0  0  0  0  0  0  0
   32.7466    7.6247   28.5789 H   0  0  0  0  0  0  0  0  0  0  0  0
   31.8593    8.8783   29.4476 H   0  0  0  0  0  0  0  0  0  0  0  0
   29.7002    7.8517   28.6840 H   0  0  0  0  0  0  0  0  0  0  0  0
   30.5962    6.6695   27.7226 H   0  0  0  0  0  0  0  0  0  0  0  0
   31.6594    5.7903   29.7971 H   0  0  0  0  0  0  0  0  0  0  0  0
   30.8056    7.0010   30.7571 H   0  0  0  0  0  0  0  0  0  0  0  0
   29.4550    4.8602   29.0273 H   0  0  0  0  0  0  0  0  0  0  0  0
   28.6105    6.0574   29.9896 H   0  0  0  0  0  0  0  0  0  0  0  0
   33.2215    3.2143   33.5424 H   0  0  0  0  0  0  0  0  0  0  0  0
   33.9953    1.5787   31.8452 H   0  0  0  0  0  0  0  0  0  0  0  0
   32.7168    1.2232   29.7549 H   0  0  0  0  0  0  0  0  0  0  0  0
   30.6286    2.5012   29.3183 H   0  0  0  0  0  0  0  0  0  0  0  0
   27.9111    6.4952   32.5331 H   0  0  0  0  0  0  0  0  0  0  0  0
   28.4886    7.4437   34.7575 H   0  0  0  0  0  0  0  0  0  0  0  0
   30.5206    6.6939   35.9559 H   0  0  0  0  0  0  0  0  0  0  0  0
   32.0203    4.9852   34.9635 H   0  0  0  0  0  0  0  0  0  0  0  0
   28.8385    2.6302   32.8675 H   0  0  0  0  0  0  0  0  0  0  0  0
   26.0642    2.2412   31.8468 H   0  0  0  0  0  0  0  0  0  0  0  0
   27.2606    0.9595   31.6337 H   0  0  0  0  0  0  0  0  0  0  0  0
   33.5398   15.2263   21.3700 H   0  0  0  0  0  0  0  0  0  0  0  0
   35.7046   16.3066   21.8148 H   0  0  0  0  0  0  0  0  0  0  0  0
   36.6160   16.3840   24.1222 H   0  0  0  0  0  0  0  0  0  0  0  0
   35.3601   15.3417   25.9809 H   0  0  0  0  0  0  0  0  0  0  0  0
   30.7407   15.3914   24.3545 H   0  0  0  0  0  0  0  0  0  0  0  0
   28.5599   14.3794   23.8535 H   0  0  0  0  0  0  0  0  0  0  0  0
   30.4829   11.5142   21.2608 H   0  0  0  0  0  0  0  0  0  0  0  0
   32.6639   12.5245   21.7632 H   0  0  0  0  0  0  0  0  0  0  0  0
  1  8  1  0
  8  9  1  0
  9 10  1  0
 10 11  1  0
 11 12  1  0
 12 13  1  0
 12 14  1  0
 14 15  2  0
 15 16  1  0
 16 17  1  0
 17 12  1  0
 16 18  2  0
 18 19  1  0
 19 20  2  0
 20 21  1  0
 21 17  2  0
 14 22  1  0
 22 23  2  0
 23 24  1  0
 24 25  2  0
 25 15  1  0
 13 26  2  0
 13 27  1  0
 27 28  1  0
  7 29  1  0
 29 30  1  0
 29 31  2  0
 30 32  1  0
 32 33  2  0
 33 34  1  0
 34 35  2  0
 35 36  1  0
 36 30  2  0
 32 37  1  0
 37 38  2  0
 38 39  1  0
 39 40  2  0
 40 41  1  0
 41 42  2  0
 42 37  1  0
 40 43  1  0
 28 44  1  0
  1  2  1  0
  2  3  1  0
 44 45  1  0
  3  4  1  0
 44 46  1  0
  4  5  1  0
 44 47  1  0
  5  6  1  0
 43 48  1  0
  6  1  1  0
 43 49  1  0
  4  7  1  0
 43 50  1  0
  2 51  1  0
  2 52  1  0
  3 53  1  0
  3 54  1  0
  4 55  1  0
  5 56  1  0
  5 57  1  0
  6 58  1  0
  6 59  1  0
  7 60  1  0
  8 61  1  0
  8 62  1  0
  9 63  1  0
  9 64  1  0
 10 65  1  0
 10 66  1  0
 11 67  1  0
 11 68  1  0
 18 69  1  0
 19 70  1  0
 20 71  1  0
 21 72  1  0
 22 73  1  0
 23 74  1  0
 24 75  1  0
 25 76  1  0
 27 77  1  0
 28 78  1  0
 28 79  1  0
 33 80  1  0
 34 81  1  0
 35 82  1  0
 36 83  1  0
 38 84  1  0
 39 85  1  0
 41 86  1  0
 42 87  1  0
M  END
> <Uni-Dock RESULT> 
ENERGY=   -3.931  LOWER_BOUND=    5.085  UPPER_BOUND=   13.827
INTER + INTRA:          -3.931
INTER:                  -3.931
INTRA:                   0.000
UNBOUND:                 0.000

$$$$

     RDKit          3D

 87 92  0  0  0  0  0  0  0  0999 V2000
   31.1425   11.9551   31.9055 N   0  0  0  0  0  0  0  0  0  0  0  0
   31.4973   13.3576   32.1838 C   0  0  0  0  0  0  0  0  0  0  0  0
   32.0105   14.1142   30.9616 C   0  0  0  0  0  0  0  0  0  0  0  0
   33.2653   13.4452   30.3841 C   0  0  0  0  0  0  0  0  0  0  0  0
   33.3172   11.9455   30.6978 C   0  0  0  0  0  0  0  0  0  0  0  0
   31.9088   11.3676   30.7945 C   0  0  0  0  0  0  0  0  0  0  0  0
   34.4810   14.0944   30.8586 N   0  0  0  0  0  0  0  0  0  0  0  0
   29.6893   11.7922   31.7313 C   0  0  0  0  0  0  0  0  0  0  0  0
   29.2463   10.3252   31.6295 C   0  0  0  0  0  0  0  0  0  0  0  0
   27.7187   10.2175   31.5673 C   0  0  0  0  0  0  0  0  0  0  0  0
   27.2704    8.7531   31.4320 C   0  0  0  0  0  0  0  0  0  0  0  0
   25.7387    8.5243   31.3637 C   0  0  0  0  0  0  0  0  0  0  0  0
   25.4280    7.0062   31.2213 C   0  0  0  0  0  0  0  0  0  0  0  0
   25.0813    9.3256   30.2294 C   0  0  0  0  0  0  0  0  0  0  0  0
   24.1164   10.2140   30.7562 C   0  0  0  0  0  0  0  0  0  0  0  0
   24.0752   10.0720   32.1967 C   0  0  0  0  0  0  0  0  0  0  0  0
   25.0139    9.0934   32.5936 C   0  0  0  0  0  0  0  0  0  0  0  0
   23.2954   10.7176   33.1415 C   0  0  0  0  0  0  0  0  0  0  0  0
   23.4605   10.3777   34.4882 C   0  0  0  0  0  0  0  0  0  0  0  0
   24.3950    9.4040   34.8776 C   0  0  0  0  0  0  0  0  0  0  0  0
   25.1822    8.7513   33.9284 C   0  0  0  0  0  0  0  0  0  0  0  0
   25.3249    9.2489   28.8651 C   0  0  0  0  0  0  0  0  0  0  0  0
   24.5881   10.0786   28.0192 C   0  0  0  0  0  0  0  0  0  0  0  0
   23.6288   10.9637   28.5380 C   0  0  0  0  0  0  0  0  0  0  0  0
   23.3874   11.0360   29.9135 C   0  0  0  0  0  0  0  0  0  0  0  0
   26.2949    6.1351   31.2881 O   0  0  0  0  0  0  0  0  0  0  0  0
   24.0982    6.6792   31.0311 N   0  0  0  0  0  0  0  0  0  0  0  0
   23.6523    5.2864   31.0214 C   0  0  0  0  0  0  0  0  0  0  0  0
   35.0055   15.2141   30.2525 C   0  0  0  0  0  0  0  0  0  0  0  0
   36.2187   15.8004   30.8877 C   0  0  0  0  0  0  0  0  0  0  0  0
   34.5054   15.7578   29.2744 O   0  0  0  0  0  0  0  0  0  0  0  0
   37.3186   15.0341   31.3356 C   0  0  0  0  0  0  0  0  0  0  0  0
   38.3897   15.7201   31.9440 C   0  0  0  0  0  0  0  0  0  0  0  0
   38.3790   17.1100   32.0893 C   0  0  0  0  0  0  0  0  0  0  0  0
   37.2991   17.8506   31.6218 C   0  0  0  0  0  0  0  0  0  0  0  0
   36.2247   17.1999   31.0190 C   0  0  0  0  0  0  0  0  0  0  0  0
   37.4232   13.5745   31.1626 C   0  0  0  0  0  0  0  0  0  0  0  0
   37.4365   12.9976   29.8831 C   0  0  0  0  0  0  0  0  0  0  0  0
   37.5074   11.6109   29.7209 C   0  0  0  0  0  0  0  0  0  0  0  0
   37.5773   10.7646   30.8365 C   0  0  0  0  0  0  0  0  0  0  0  0
   37.5736   11.3351   32.1167 C   0  0  0  0  0  0  0  0  0  0  0  0
   37.5026   12.7226   32.2764 C   0  0  0  0  0  0  0  0  0  0  0  0
   37.6315    9.2683   30.6473 C   0  0  0  0  0  0  0  0  0  0  0  0
   22.2751    5.0635   30.4034 C   0  0  0  0  0  0  0  0  0  0  0  0
   21.8856    3.7760   30.5341 F   0  0  0  0  0  0  0  0  0  0  0  0
   21.3444    5.8364   31.0109 F   0  0  0  0  0  0  0  0  0  0  0  0
   22.2635    5.3655   29.0867 F   0  0  0  0  0  0  0  0  0  0  0  0
   37.9233    8.5868   31.7907 F   0  0  0  0  0  0  0  0  0  0  0  0
   36.4494    8.7600   30.2011 F   0  0  0  0  0  0  0  0  0  0  0  0
   38.5712    8.8869   29.7376 F   0  0  0  0  0  0  0  0  0  0  0  0
   30.6572   13.9044   32.6297 H   0  0  0  0  0  0  0  0  0  0  0  0
   32.2802   13.3576   32.9535 H   0  0  0  0  0  0  0  0  0  0  0  0
   32.2018   15.1615   31.2232 H   0  0  0  0  0  0  0  0  0  0  0  0
   31.2226   14.1252   30.1971 H   0  0  0  0  0  0  0  0  0  0  0  0
   33.2357   13.5753   29.2943 H   0  0  0  0  0  0  0  0  0  0  0  0
   33.8531   11.7558   31.6379 H   0  0  0  0  0  0  0  0  0  0  0  0
   33.8869   11.4271   29.9170 H   0  0  0  0  0  0  0  0  0  0  0  0
   31.9861   10.2847   30.9452 H   0  0  0  0  0  0  0  0  0  0  0  0
   31.3998   11.5297   29.8348 H   0  0  0  0  0  0  0  0  0  0  0  0
   34.8650   13.7987   31.7469 H   0  0  0  0  0  0  0  0  0  0  0  0
   29.1795   12.2285   32.6000 H   0  0  0  0  0  0  0  0  0  0  0  0
   29.3464   12.3452   30.8473 H   0  0  0  0  0  0  0  0  0  0  0  0
   29.6698    9.8590   30.7323 H   0  0  0  0  0  0  0  0  0  0  0  0
   29.6174    9.7653   32.4968 H   0  0  0  0  0  0  0  0  0  0  0  0
   27.2929   10.6614   32.4741 H   0  0  0  0  0  0  0  0  0  0  0  0
   27.3568   10.8043   30.7157 H   0  0  0  0  0  0  0  0  0  0  0  0
   27.6842    8.1865   32.2774 H   0  0  0  0  0  0  0  0  0  0  0  0
   27.7370    8.3306   30.5314 H   0  0  0  0  0  0  0  0  0  0  0  0
   22.5707   11.4728   32.8556 H   0  0  0  0  0  0  0  0  0  0  0  0
   22.8590   10.8751   35.2460 H   0  0  0  0  0  0  0  0  0  0  0  0
   24.5064    9.1586   35.9317 H   0  0  0  0  0  0  0  0  0  0  0  0
   25.9041    7.9990   34.2327 H   0  0  0  0  0  0  0  0  0  0  0  0
   26.0625    8.5632   28.4596 H   0  0  0  0  0  0  0  0  0  0  0  0
   24.7559   10.0396   26.9450 H   0  0  0  0  0  0  0  0  0  0  0  0
   23.0664   11.6008   27.8590 H   0  0  0  0  0  0  0  0  0  0  0  0
   22.6438   11.7249   30.3003 H   0  0  0  0  0  0  0  0  0  0  0  0
   23.4040    7.4029   31.1976 H   0  0  0  0  0  0  0  0  0  0  0  0
   24.3943    4.6809   30.4904 H   0  0  0  0  0  0  0  0  0  0  0  0
   23.6426    4.9546   32.0651 H   0  0  0  0  0  0  0  0  0  0  0  0
   39.2616   15.1678   32.2926 H   0  0  0  0  0  0  0  0  0  0  0  0
   39.2234   17.6135   32.5544 H   0  0  0  0  0  0  0  0  0  0  0  0
   37.2935   18.9331   31.7210 H   0  0  0  0  0  0  0  0  0  0  0  0
   35.3822   17.7838   30.6511 H   0  0  0  0  0  0  0  0  0  0  0  0
   37.3799   13.6293   28.9968 H   0  0  0  0  0  0  0  0  0  0  0  0
   37.5052   11.1930   28.7149 H   0  0  0  0  0  0  0  0  0  0  0  0
   37.6242   10.7009   33.0013 H   0  0  0  0  0  0  0  0  0  0  0  0
   37.4968   13.1369   33.2836 H   0  0  0  0  0  0  0  0  0  0  0  0
  1  8  1  0
  8  9  1  0
  9 10  1  0
 10 11  1  0
 11 12  1  0
 12 13  1  0
 12 14  1  0
 14 15  2  0
 15 16  1  0
 16 17  1  0
 17 12  1  0
 16 18  2  0
 18 19  1  0
 19 20  2  0
 20 21  1  0
 21 17  2  0
 14 22  1  0
 22 23  2  0
 23 24  1  0
 24 25  2  0
 25 15  1  0
 13 26  2  0
 13 27  1  0
 27 28  1  0
  7 29  1  0
 29 30  1  0
 29 31  2  0
 30 32  1  0
 32 33  2  0
 33 34  1  0
 34 35  2  0
 35 36  1  0
 36 30  2  0
 32 37  1  0
 37 38  2  0
 38 39  1  0
 39 40  2  0
 40 41  1  0
 41 42  2  0
 42 37  1  0
 40 43  1  0
 28 44  1  0
  1  2  1  0
  2  3  1  0
 44 45  1  0
  3  4  1  0
 44 46  1  0
  4  5  1  0
 44 47  1  0
  5  6  1  0
 43 48  1  0
  6  1  1  0
 43 49  1  0
  4  7  1  0
 43 50  1  0
  2 51  1  0
  2 52  1  0
  3 53  1  0
  3 54  1  0
  4 55  1  0
  5 56  1  0
  5 57  1  0
  6 58  1  0
  6 59  1  0
  7 60  1  0
  8 61  1  0
  8 62  1  0
  9 63  1  0
  9 64  1  0
 10 65  1  0
 10 66  1  0
 11 67  1  0
 11 68  1  0
 18 69  1  0
 19 70  1  0
 20 71  1  0
 21 72  1  0
 22 73  1  0
 23 74  1  0
 24 75  1  0
 25 76  1  0
 27 77  1  0
 28 78  1  0
 28 79  1  0
 33 80  1  0
 34 81  1  0
 35 82  1  0
 36 83  1  0
 38 84  1  0
 39 85  1  0
 41 86  1  0
 42 87  1  0
M  END
> <Uni-Dock RESULT> 
ENERGY=   -3.873  LOWER_BOUND=    5.689  UPPER_BOUND=   13.387
INTER + INTRA:          -3.873
INTER:                  -3.873
INTRA:                   0.000
UNBOUND:                 0.000

$$$$

     RDKit          3D

 87 92  0  0  0  0  0  0  0  0999 V2000
   32.4697   13.1013   25.4551 N   0  0  0  0  0  0  0  0  0  0  0  0
   33.7678   13.7459   25.7194 C   0  0  0  0  0  0  0  0  0  0  0  0
   34.8571   12.7723   26.1609 C   0  0  0  0  0  0  0  0  0  0  0  0
   34.4552   12.0397   27.4482 C   0  0  0  0  0  0  0  0  0  0  0  0
   32.9335   11.9404   27.6057 C   0  0  0  0  0  0  0  0  0  0  0  0
   32.2550   11.8753   26.2411 C   0  0  0  0  0  0  0  0  0  0  0  0
   35.0362   12.6737   28.6251 N   0  0  0  0  0  0  0  0  0  0  0  0
   32.2595   12.8863   24.0135 C   0  0  0  0  0  0  0  0  0  0  0  0
   30.8461   12.3942   23.6684 C   0  0  0  0  0  0  0  0  0  0  0  0
   30.6538   12.3018   22.1506 C   0  0  0  0  0  0  0  0  0  0  0  0
   29.2516   11.7781   21.7996 C   0  0  0  0  0  0  0  0  0  0  0  0
   28.9442   11.6473   20.2858 C   0  0  0  0  0  0  0  0  0  0  0  0
   27.5018   11.1028   20.0754 C   0  0  0  0  0  0  0  0  0  0  0  0
   29.9723   10.7675   19.5579 C   0  0  0  0  0  0  0  0  0  0  0  0
   30.6187   11.5107   18.5442 C   0  0  0  0  0  0  0  0  0  0  0  0
   30.0943   12.8604   18.5359 C   0  0  0  0  0  0  0  0  0  0  0  0
   29.1124   12.9830   19.5444 C   0  0  0  0  0  0  0  0  0  0  0  0
   30.4084   13.9418   17.7298 C   0  0  0  0  0  0  0  0  0  0  0  0
   29.7330   15.1486   17.9391 C   0  0  0  0  0  0  0  0  0  0  0  0
   28.7575   15.2652   18.9431 C   0  0  0  0  0  0  0  0  0  0  0  0
   28.4383   14.1778   19.7569 C   0  0  0  0  0  0  0  0  0  0  0  0
   30.2802    9.4332   19.7839 C   0  0  0  0  0  0  0  0  0  0  0  0
   31.2529    8.8386   18.9796 C   0  0  0  0  0  0  0  0  0  0  0  0
   31.8987    9.5732   17.9715 C   0  0  0  0  0  0  0  0  0  0  0  0
   31.5838   10.9172   17.7480 C   0  0  0  0  0  0  0  0  0  0  0  0
   26.7066   10.9359   20.9998 O   0  0  0  0  0  0  0  0  0  0  0  0
   27.1466   10.8287   18.7678 N   0  0  0  0  0  0  0  0  0  0  0  0
   25.7798   10.4453   18.4162 C   0  0  0  0  0  0  0  0  0  0  0  0
   36.3106   12.3909   29.0634 C   0  0  0  0  0  0  0  0  0  0  0  0
   36.7880   13.1629   30.2446 C   0  0  0  0  0  0  0  0  0  0  0  0
   37.0602   11.5930   28.5122 O   0  0  0  0  0  0  0  0  0  0  0  0
   36.0076   13.3918   31.4006 C   0  0  0  0  0  0  0  0  0  0  0  0
   36.5782   14.1643   32.4329 C   0  0  0  0  0  0  0  0  0  0  0  0
   37.8745   14.6765   32.3313 C   0  0  0  0  0  0  0  0  0  0  0  0
   38.6368   14.4218   31.1967 C   0  0  0  0  0  0  0  0  0  0  0  0
   38.0984   13.6642   30.1588 C   0  0  0  0  0  0  0  0  0  0  0  0
   34.6582   12.8344   31.6001 C   0  0  0  0  0  0  0  0  0  0  0  0
   34.4468   11.4471   31.6314 C   0  0  0  0  0  0  0  0  0  0  0  0
   33.1623   10.9197   31.7927 C   0  0  0  0  0  0  0  0  0  0  0  0
   32.0554   11.7679   31.9372 C   0  0  0  0  0  0  0  0  0  0  0  0
   32.2612   13.1542   31.9159 C   0  0  0  0  0  0  0  0  0  0  0  0
   33.5471   13.6795   31.7545 C   0  0  0  0  0  0  0  0  0  0  0  0
   30.6716   11.1851   32.0887 C   0  0  0  0  0  0  0  0  0  0  0  0
   25.6357    9.7869   17.0473 C   0  0  0  0  0  0  0  0  0  0  0  0
   24.3364    9.5670   16.7473 F   0  0  0  0  0  0  0  0  0  0  0  0
   26.1520   10.5769   16.0767 F   0  0  0  0  0  0  0  0  0  0  0  0
   26.2772    8.5991   16.9942 F   0  0  0  0  0  0  0  0  0  0  0  0
   29.7311   12.1049   32.4440 F   0  0  0  0  0  0  0  0  0  0  0  0
   30.2208   10.6162   30.9363 F   0  0  0  0  0  0  0  0  0  0  0  0
   30.6131   10.2087   33.0371 F   0  0  0  0  0  0  0  0  0  0  0  0
   34.1162   14.3200   24.8519 H   0  0  0  0  0  0  0  0  0  0  0  0
   33.6160   14.4894   26.5129 H   0  0  0  0  0  0  0  0  0  0  0  0
   35.8070   13.3053   26.2856 H   0  0  0  0  0  0  0  0  0  0  0  0
   35.0177   12.0367   25.3618 H   0  0  0  0  0  0  0  0  0  0  0  0
   34.8695   11.0245   27.3924 H   0  0  0  0  0  0  0  0  0  0  0  0
   32.5368   12.7966   28.1683 H   0  0  0  0  0  0  0  0  0  0  0  0
   32.6833   11.0506   28.1962 H   0  0  0  0  0  0  0  0  0  0  0  0
   31.1793   11.7307   26.3933 H   0  0  0  0  0  0  0  0  0  0  0  0
   32.6323   10.9929   25.7069 H   0  0  0  0  0  0  0  0  0  0  0  0
   34.5410   13.4512   29.0424 H   0  0  0  0  0  0  0  0  0  0  0  0
   32.4114   13.8389   23.4897 H   0  0  0  0  0  0  0  0  0  0  0  0
   33.0036   12.1819   23.6200 H   0  0  0  0  0  0  0  0  0  0  0  0
   30.6671   11.4060   24.1077 H   0  0  0  0  0  0  0  0  0  0  0  0
   30.1017   13.0808   24.0902 H   0  0  0  0  0  0  0  0  0  0  0  0
   30.8087   13.2933   21.7108 H   0  0  0  0  0  0  0  0  0  0  0  0
   31.4206   11.6377   21.7365 H   0  0  0  0  0  0  0  0  0  0  0  0
   28.5096   12.4419   22.2641 H   0  0  0  0  0  0  0  0  0  0  0  0
   29.1185   10.7983   22.2789 H   0  0  0  0  0  0  0  0  0  0  0  0
   31.1606   13.8668   16.9515 H   0  0  0  0  0  0  0  0  0  0  0  0
   29.9670   16.0105   17.3179 H   0  0  0  0  0  0  0  0  0  0  0  0
   28.2475   16.2153   19.0877 H   0  0  0  0  0  0  0  0  0  0  0  0
   27.6838   14.2712   20.5324 H   0  0  0  0  0  0  0  0  0  0  0  0
   29.7804    8.8606   20.5593 H   0  0  0  0  0  0  0  0  0  0  0  0
   31.5142    7.7936   19.1322 H   0  0  0  0  0  0  0  0  0  0  0  0
   32.6537    9.0883   17.3567 H   0  0  0  0  0  0  0  0  0  0  0  0
   32.0912   11.4726   16.9662 H   0  0  0  0  0  0  0  0  0  0  0  0
   27.7497   11.1813   18.0293 H   0  0  0  0  0  0  0  0  0  0  0  0
   25.3910    9.7733   19.1885 H   0  0  0  0  0  0  0  0  0  0  0  0
   25.1812   11.3620   18.4457 H   0  0  0  0  0  0  0  0  0  0  0  0
   36.0144   14.3543   33.3454 H   0  0  0  0  0  0  0  0  0  0  0  0
   38.2923   15.2615   33.1473 H   0  0  0  0  0  0  0  0  0  0  0  0
   39.6503   14.8073   31.1200 H   0  0  0  0  0  0  0  0  0  0  0  0
   38.6997   13.4641   29.2732 H   0  0  0  0  0  0  0  0  0  0  0  0
   35.2870   10.7624   31.5182 H   0  0  0  0  0  0  0  0  0  0  0  0
   33.0294    9.8384   31.8023 H   0  0  0  0  0  0  0  0  0  0  0  0
   31.4186   13.8367   32.0233 H   0  0  0  0  0  0  0  0  0  0  0  0
   33.6756   14.7609   31.7372 H   0  0  0  0  0  0  0  0  0  0  0  0
  1  8  1  0
  8  9  1  0
  9 10  1  0
 10 11  1  0
 11 12  1  0
 12 13  1  0
 12 14  1  0
 14 15  2  0
 15 16  1  0
 16 17  1  0
 17 12  1  0
 16 18  2  0
 18 19  1  0
 19 20  2  0
 20 21  1  0
 21 17  2  0
 14 22  1  0
 22 23  2  0
 23 24  1  0
 24 25  2  0
 25 15  1  0
 13 26  2  0
 13 27  1  0
 27 28  1  0
  7 29  1  0
 29 30  1  0
 29 31  2  0
 30 32  1  0
 32 33  2  0
 33 34  1  0
 34 35  2  0
 35 36  1  0
 36 30  2  0
 32 37  1  0
 37 38  2  0
 38 39  1  0
 39 40  2  0
 40 41  1  0
 41 42  2  0
 42 37  1  0
 40 43  1  0
 28 44  1  0
  1  2  1  0
  2  3  1  0
 44 45  1  0
  3  4  1  0
 44 46  1  0
  4  5  1  0
 44 47  1  0
  5  6  1  0
 43 48  1  0
  6  1  1  0
 43 49  1  0
  4  7  1  0
 43 50  1  0
  2 51  1  0
  2 52  1  0
  3 53  1  0
  3 54  1  0
  4 55  1  0
  5 56  1  0
  5 57  1  0
  6 58  1  0
  6 59  1  0
  7 60  1  0
  8 61  1  0
  8 62  1  0
  9 63  1  0
  9 64  1  0
 10 65  1  0
 10 66  1  0
 11 67  1  0
 11 68  1  0
 18 69  1  0
 19 70  1  0
 20 71  1  0
 21 72  1  0
 22 73  1  0
 23 74  1  0
 24 75  1  0
 25 76  1  0
 27 77  1  0
 28 78  1  0
 28 79  1  0
 33 80  1  0
 34 81  1  0
 35 82  1  0
 36 83  1  0
 38 84  1  0
 39 85  1  0
 41 86  1  0
 42 87  1  0
M  END
> <Uni-Dock RESULT> 
ENERGY=   -3.749  LOWER_BOUND=    6.867  UPPER_BOUND=   10.775
INTER + INTRA:          -3.749
INTER:                  -3.749
INTRA:                   0.000
UNBOUND:                 0.000

$$$$

     RDKit          3D

 87 92  0  0  0  0  0  0  0  0999 V2000
   27.1331   11.3582   27.7808 N   0  0  0  0  0  0  0  0  0  0  0  0
   27.8742   10.6873   28.8630 C   0  0  0  0  0  0  0  0  0  0  0  0
   27.4091    9.2584   29.1302 C   0  0  0  0  0  0  0  0  0  0  0  0
   25.9253    9.2238   29.5208 C   0  0  0  0  0  0  0  0  0  0  0  0
   25.1480   10.4127   28.9441 C   0  0  0  0  0  0  0  0  0  0  0  0
   25.7568   10.8614   27.6195 C   0  0  0  0  0  0  0  0  0  0  0  0
   25.7567    9.1747   30.9677 N   0  0  0  0  0  0  0  0  0  0  0  0
   27.8885   11.3352   26.5170 C   0  0  0  0  0  0  0  0  0  0  0  0
   27.2504   12.1842   25.4076 C   0  0  0  0  0  0  0  0  0  0  0  0
   28.1404   12.2139   24.1601 C   0  0  0  0  0  0  0  0  0  0  0  0
   27.4911   13.0352   23.0343 C   0  0  0  0  0  0  0  0  0  0  0  0
   28.3086   13.1366   21.7211 C   0  0  0  0  0  0  0  0  0  0  0  0
   27.5353   13.9855   20.6709 C   0  0  0  0  0  0  0  0  0  0  0  0
   28.6664   11.7553   21.1511 C   0  0  0  0  0  0  0  0  0  0  0  0
   30.0700   11.6102   21.0705 C   0  0  0  0  0  0  0  0  0  0  0  0
   30.7021   12.8179   21.5592 C   0  0  0  0  0  0  0  0  0  0  0  0
   29.7041   13.7369   21.9538 C   0  0  0  0  0  0  0  0  0  0  0  0
   32.0421   13.1491   21.6709 C   0  0  0  0  0  0  0  0  0  0  0  0
   32.3782   14.4075   22.1806 C   0  0  0  0  0  0  0  0  0  0  0  0
   31.3822   15.3176   22.5714 C   0  0  0  0  0  0  0  0  0  0  0  0
   30.0312   14.9874   22.4601 C   0  0  0  0  0  0  0  0  0  0  0  0
   27.8102   10.7433   20.7398 C   0  0  0  0  0  0  0  0  0  0  0  0
   28.3741    9.5685   20.2415 C   0  0  0  0  0  0  0  0  0  0  0  0
   29.7684    9.4192   20.1602 C   0  0  0  0  0  0  0  0  0  0  0  0
   30.6261   10.4426   20.5756 C   0  0  0  0  0  0  0  0  0  0  0  0
   26.4895   14.5810   20.9287 O   0  0  0  0  0  0  0  0  0  0  0  0
   28.1058   14.0528   19.4134 N   0  0  0  0  0  0  0  0  0  0  0  0
   27.5579   14.9265   18.3764 C   0  0  0  0  0  0  0  0  0  0  0  0
   25.7960    7.9948   31.6766 C   0  0  0  0  0  0  0  0  0  0  0  0
   25.6685    8.1101   33.1562 C   0  0  0  0  0  0  0  0  0  0  0  0
   25.9738    6.8962   31.1630 O   0  0  0  0  0  0  0  0  0  0  0  0
   24.7177    8.9337   33.8006 C   0  0  0  0  0  0  0  0  0  0  0  0
   24.7283    8.9663   35.2101 C   0  0  0  0  0  0  0  0  0  0  0  0
   25.6335    8.2026   35.9520 C   0  0  0  0  0  0  0  0  0  0  0  0
   26.5467    7.3798   35.3021 C   0  0  0  0  0  0  0  0  0  0  0  0
   26.5620    7.3293   33.9099 C   0  0  0  0  0  0  0  0  0  0  0  0
   23.6971    9.7193   33.0845 C   0  0  0  0  0  0  0  0  0  0  0  0
   22.7315    9.0900   32.2834 C   0  0  0  0  0  0  0  0  0  0  0  0
   21.7813    9.8382   31.5823 C   0  0  0  0  0  0  0  0  0  0  0  0
   21.7661   11.2372   31.6728 C   0  0  0  0  0  0  0  0  0  0  0  0
   22.7221   11.8710   32.4784 C   0  0  0  0  0  0  0  0  0  0  0  0
   23.6716   11.1203   33.1789 C   0  0  0  0  0  0  0  0  0  0  0  0
   20.7484   12.0337   30.8934 C   0  0  0  0  0  0  0  0  0  0  0  0
   28.0160   14.5965   16.9589 C   0  0  0  0  0  0  0  0  0  0  0  0
   27.5618   15.5125   16.0750 F   0  0  0  0  0  0  0  0  0  0  0  0
   29.3675   14.5866   16.8801 F   0  0  0  0  0  0  0  0  0  0  0  0
   27.5727   13.3844   16.5601 F   0  0  0  0  0  0  0  0  0  0  0  0
   20.7019   13.3489   31.2471 F   0  0  0  0  0  0  0  0  0  0  0  0
   20.9930   12.0157   29.5538 F   0  0  0  0  0  0  0  0  0  0  0  0
   19.4798   11.5620   31.0497 F   0  0  0  0  0  0  0  0  0  0  0  0
   28.9549   10.6940   28.6750 H   0  0  0  0  0  0  0  0  0  0  0  0
   27.7386   11.2795   29.7775 H   0  0  0  0  0  0  0  0  0  0  0  0
   28.0358    8.7997   29.9040 H   0  0  0  0  0  0  0  0  0  0  0  0
   27.5569    8.6633   28.2194 H   0  0  0  0  0  0  0  0  0  0  0  0
   25.4998    8.2963   29.1158 H   0  0  0  0  0  0  0  0  0  0  0  0
   25.1401   11.2585   29.6453 H   0  0  0  0  0  0  0  0  0  0  0  0
   24.0978   10.1300   28.8021 H   0  0  0  0  0  0  0  0  0  0  0  0
   25.1336   11.6608   27.2025 H   0  0  0  0  0  0  0  0  0  0  0  0
   25.7216   10.0177   26.9170 H   0  0  0  0  0  0  0  0  0  0  0  0
   25.7586   10.0480   31.4789 H   0  0  0  0  0  0  0  0  0  0  0  0
   28.8933   11.7375   26.7000 H   0  0  0  0  0  0  0  0  0  0  0  0
   28.0156   10.3027   26.1668 H   0  0  0  0  0  0  0  0  0  0  0  0
   26.2698   11.7792   25.1320 H   0  0  0  0  0  0  0  0  0  0  0  0
   27.0931   13.2080   25.7690 H   0  0  0  0  0  0  0  0  0  0  0  0
   29.1138   12.6404   24.4269 H   0  0  0  0  0  0  0  0  0  0  0  0
   28.3154   11.1853   23.8257 H   0  0  0  0  0  0  0  0  0  0  0  0
   27.2918   14.0460   23.4161 H   0  0  0  0  0  0  0  0  0  0  0  0
   26.5071   12.5998   22.8120 H   0  0  0  0  0  0  0  0  0  0  0  0
   32.8221   12.4557   21.3745 H   0  0  0  0  0  0  0  0  0  0  0  0
   33.4253   14.6858   22.2785 H   0  0  0  0  0  0  0  0  0  0  0  0
   31.6692   16.2896   22.9670 H   0  0  0  0  0  0  0  0  0  0  0  0
   29.2635   15.6933   22.7633 H   0  0  0  0  0  0  0  0  0  0  0  0
   26.7319   10.8563   20.7971 H   0  0  0  0  0  0  0  0  0  0  0  0
   27.7281    8.7583   19.9099 H   0  0  0  0  0  0  0  0  0  0  0  0
   30.1852    8.4942   19.7680 H   0  0  0  0  0  0  0  0  0  0  0  0
   31.7011   10.3132   20.5077 H   0  0  0  0  0  0  0  0  0  0  0  0
   29.0643   13.7302   19.3101 H   0  0  0  0  0  0  0  0  0  0  0  0
   26.4645   14.8915   18.4254 H   0  0  0  0  0  0  0  0  0  0  0  0
   27.8664   15.9458   18.6323 H   0  0  0  0  0  0  0  0  0  0  0  0
   24.0044    9.5794   35.7456 H   0  0  0  0  0  0  0  0  0  0  0  0
   25.6127    8.2405   37.0386 H   0  0  0  0  0  0  0  0  0  0  0  0
   27.2434    6.7741   35.8763 H   0  0  0  0  0  0  0  0  0  0  0  0
   27.2765    6.6812   33.4046 H   0  0  0  0  0  0  0  0  0  0  0  0
   22.7200    8.0042   32.1904 H   0  0  0  0  0  0  0  0  0  0  0  0
   21.0515    9.3210   30.9604 H   0  0  0  0  0  0  0  0  0  0  0  0
   22.7351   12.9570   32.5649 H   0  0  0  0  0  0  0  0  0  0  0  0
   24.4050   11.6408   33.7933 H   0  0  0  0  0  0  0  0  0  0  0  0
  1  8  1  0
  8  9  1  0
  9 10  1  0
 10 11  1  0
 11 12  1  0
 12 13  1  0
 12 14  1  0
 14 15  2  0
 15 16  1  0
 16 17  1  0
 17 12  1  0
 16 18  2  0
 18 19  1  0
 19 20  2  0
 20 21  1  0
 21 17  2  0
 14 22  1  0
 22 23  2  0
 23 24  1  0
 24 25  2  0
 25 15  1  0
 13 26  2  0
 13 27  1  0
 27 28  1  0
  7 29  1  0
 29 30  1  0
 29 31  2  0
 30 32  1  0
 32 33  2  0
 33 34  1  0
 34 35  2  0
 35 36  1  0
 36 30  2  0
 32 37  1  0
 37 38  2  0
 38 39  1  0
 39 40  2  0
 40 41  1  0
 41 42  2  0
 42 37  1  0
 40 43  1  0
 28 44  1  0
  1  2  1  0
  2  3  1  0
 44 45  1  0
  3  4  1  0
 44 46  1  0
  4  5  1  0
 44 47  1  0
  5  6  1  0
 43 48  1  0
  6  1  1  0
 43 49  1  0
  4  7  1  0
 43 50  1  0
  2 51  1  0
  2 52  1  0
  3 53  1  0
  3 54  1  0
  4 55  1  0
  5 56  1  0
  5 57  1  0
  6 58  1  0
  6 59  1  0
  7 60  1  0
  8 61  1  0
  8 62  1  0
  9 63  1  0
  9 64  1  0
 10 65  1  0
 10 66  1  0
 11 67  1  0
 11 68  1  0
 18 69  1  0
 19 70  1  0
 20 71  1  0
 21 72  1  0
 22 73  1  0
 23 74  1  0
 24 75  1  0
 25 76  1  0
 27 77  1  0
 28 78  1  0
 28 79  1  0
 33 80  1  0
 34 81  1  0
 35 82  1  0
 36 83  1  0
 38 84  1  0
 39 85  1  0
 41 86  1  0
 42 87  1  0
M  END
> <Uni-Dock RESULT> 
ENERGY=   -3.662  LOWER_BOUND=    4.519  UPPER_BOUND=    6.572
INTER + INTRA:          -3.662
INTER:                  -3.662
INTRA:                   0.000
UNBOUND:                 0.000

$$$$

     RDKit          3D

 87 92  0  0  0  0  0  0  0  0999 V2000
   32.9389   13.2087   24.4882 N   0  0  0  0  0  0  0  0  0  0  0  0
   34.3595   13.5584   24.6608 C   0  0  0  0  0  0  0  0  0  0  0  0
   34.6242   15.0616   24.6695 C   0  0  0  0  0  0  0  0  0  0  0  0
   34.1633   15.7117   23.3579 C   0  0  0  0  0  0  0  0  0  0  0  0
   33.0329   14.9224   22.6875 C   0  0  0  0  0  0  0  0  0  0  0  0
   32.1761   14.2167   23.7338 C   0  0  0  0  0  0  0  0  0  0  0  0
   35.2729   15.8778   22.4274 N   0  0  0  0  0  0  0  0  0  0  0  0
   32.3065   12.8761   25.7758 C   0  0  0  0  0  0  0  0  0  0  0  0
   30.8817   12.3208   25.6319 C   0  0  0  0  0  0  0  0  0  0  0  0
   30.3237   11.8859   26.9915 C   0  0  0  0  0  0  0  0  0  0  0  0
   28.8852   11.3598   26.8586 C   0  0  0  0  0  0  0  0  0  0  0  0
   28.2198   10.8866   28.1763 C   0  0  0  0  0  0  0  0  0  0  0  0
   26.7719   10.3887   27.8986 C   0  0  0  0  0  0  0  0  0  0  0  0
   28.2241   11.9807   29.2551 C   0  0  0  0  0  0  0  0  0  0  0  0
   28.9338   11.5384   30.3947 C   0  0  0  0  0  0  0  0  0  0  0  0
   29.4245   10.1967   30.1586 C   0  0  0  0  0  0  0  0  0  0  0  0
   29.0302    9.7788   28.8677 C   0  0  0  0  0  0  0  0  0  0  0  0
   30.1610    9.3527   30.9728 C   0  0  0  0  0  0  0  0  0  0  0  0
   30.5012    8.0860   30.4870 C   0  0  0  0  0  0  0  0  0  0  0  0
   30.1067    7.6753   29.2030 C   0  0  0  0  0  0  0  0  0  0  0  0
   29.3644    8.5228   28.3800 C   0  0  0  0  0  0  0  0  0  0  0  0
   27.6378   13.2379   29.2115 C   0  0  0  0  0  0  0  0  0  0  0  0
   27.7684   14.0623   30.3296 C   0  0  0  0  0  0  0  0  0  0  0  0
   28.4734   13.6277   31.4640 C   0  0  0  0  0  0  0  0  0  0  0  0
   29.0615   12.3595   31.5024 C   0  0  0  0  0  0  0  0  0  0  0  0
   26.3059   10.2806   26.7646 O   0  0  0  0  0  0  0  0  0  0  0  0
   26.0278   10.0492   29.0132 N   0  0  0  0  0  0  0  0  0  0  0  0
   24.7056    9.4373   28.8866 C   0  0  0  0  0  0  0  0  0  0  0  0
   36.1178   16.9643   22.4715 C   0  0  0  0  0  0  0  0  0  0  0  0
   37.2425   16.9648   21.4948 C   0  0  0  0  0  0  0  0  0  0  0  0
   36.0149   17.8758   23.2845 O   0  0  0  0  0  0  0  0  0  0  0  0
   37.0981   16.6239   20.1307 C   0  0  0  0  0  0  0  0  0  0  0  0
   38.2555   16.6411   19.3257 C   0  0  0  0  0  0  0  0  0  0  0  0
   39.5027   16.9963   19.8466 C   0  0  0  0  0  0  0  0  0  0  0  0
   39.6225   17.3516   21.1856 C   0  0  0  0  0  0  0  0  0  0  0  0
   38.4967   17.3408   22.0062 C   0  0  0  0  0  0  0  0  0  0  0  0
   35.8062   16.2967   19.5018 C   0  0  0  0  0  0  0  0  0  0  0  0
   34.7631   17.2351   19.4630 C   0  0  0  0  0  0  0  0  0  0  0  0
   33.5287   16.9139   18.8911 C   0  0  0  0  0  0  0  0  0  0  0  0
   33.3088   15.6467   18.3330 C   0  0  0  0  0  0  0  0  0  0  0  0
   34.3496   14.7083   18.3604 C   0  0  0  0  0  0  0  0  0  0  0  0
   35.5836   15.0320   18.9331 C   0  0  0  0  0  0  0  0  0  0  0  0
   31.9642   15.3061   17.7383 C   0  0  0  0  0  0  0  0  0  0  0  0
   23.8517    9.5003   30.1494 C   0  0  0  0  0  0  0  0  0  0  0  0
   22.6963    8.8173   29.9903 F   0  0  0  0  0  0  0  0  0  0  0  0
   24.5074    8.9560   31.2013 F   0  0  0  0  0  0  0  0  0  0  0  0
   23.5361   10.7725   30.4762 F   0  0  0  0  0  0  0  0  0  0  0  0
   31.9612   14.1376   17.0370 F   0  0  0  0  0  0  0  0  0  0  0  0
   30.9970   15.1741   18.6879 F   0  0  0  0  0  0  0  0  0  0  0  0
   31.5147   16.2588   16.8744 F   0  0  0  0  0  0  0  0  0  0  0  0
   34.7783   13.1053   25.5678 H   0  0  0  0  0  0  0  0  0  0  0  0
   34.9179   13.1065   23.8305 H   0  0  0  0  0  0  0  0  0  0  0  0
   35.6872   15.2531   24.8573 H   0  0  0  0  0  0  0  0  0  0  0  0
   34.0759   15.5113   25.5077 H   0  0  0  0  0  0  0  0  0  0  0  0
   33.7940   16.7167   23.6005 H   0  0  0  0  0  0  0  0  0  0  0  0
   33.4320   14.1793   21.9835 H   0  0  0  0  0  0  0  0  0  0  0  0
   32.4157   15.6030   22.0885 H   0  0  0  0  0  0  0  0  0  0  0  0
   31.3386   13.7260   23.2250 H   0  0  0  0  0  0  0  0  0  0  0  0
   31.7527   14.9754   24.4057 H   0  0  0  0  0  0  0  0  0  0  0  0
   35.5154   15.0987   21.8290 H   0  0  0  0  0  0  0  0  0  0  0  0
   32.9089   12.1063   26.2753 H   0  0  0  0  0  0  0  0  0  0  0  0
   32.2974   13.7538   26.4348 H   0  0  0  0  0  0  0  0  0  0  0  0
   30.2167   13.0798   25.2039 H   0  0  0  0  0  0  0  0  0  0  0  0
   30.8857   11.4638   24.9471 H   0  0  0  0  0  0  0  0  0  0  0  0
   30.9732   11.1099   27.4116 H   0  0  0  0  0  0  0  0  0  0  0  0
   30.3522   12.7411   27.6758 H   0  0  0  0  0  0  0  0  0  0  0  0
   28.8862   10.5325   26.1357 H   0  0  0  0  0  0  0  0  0  0  0  0
   28.2683   12.1499   26.4085 H   0  0  0  0  0  0  0  0  0  0  0  0
   30.4739    9.6570   31.9661 H   0  0  0  0  0  0  0  0  0  0  0  0
   31.0814    7.4090   31.1104 H   0  0  0  0  0  0  0  0  0  0  0  0
   30.3855    6.6858   28.8470 H   0  0  0  0  0  0  0  0  0  0  0  0
   29.0610    8.2024   27.3876 H   0  0  0  0  0  0  0  0  0  0  0  0
   27.0885   13.5762   28.3382 H   0  0  0  0  0  0  0  0  0  0  0  0
   27.3182   15.0527   30.3253 H   0  0  0  0  0  0  0  0  0  0  0  0
   28.5620   14.2877   32.3241 H   0  0  0  0  0  0  0  0  0  0  0  0
   29.6038   12.0372   32.3851 H   0  0  0  0  0  0  0  0  0  0  0  0
   26.5186    9.9495   29.8979 H   0  0  0  0  0  0  0  0  0  0  0  0
   24.1717    9.9164   28.0592 H   0  0  0  0  0  0  0  0  0  0  0  0
   24.8714    8.3908   28.6092 H   0  0  0  0  0  0  0  0  0  0  0  0
   38.1853   16.3960   18.2666 H   0  0  0  0  0  0  0  0  0  0  0  0
   40.3770   17.0098   19.1999 H   0  0  0  0  0  0  0  0  0  0  0  0
   40.5886   17.6415   21.5909 H   0  0  0  0  0  0  0  0  0  0  0  0
   38.5939   17.6229   23.0536 H   0  0  0  0  0  0  0  0  0  0  0  0
   34.9027   18.2273   19.8918 H   0  0  0  0  0  0  0  0  0  0  0  0
   32.7353   17.6605   18.8858 H   0  0  0  0  0  0  0  0  0  0  0  0
   34.2054   13.7150   17.9364 H   0  0  0  0  0  0  0  0  0  0  0  0
   36.3721   14.2807   18.9441 H   0  0  0  0  0  0  0  0  0  0  0  0
  1  8  1  0
  8  9  1  0
  9 10  1  0
 10 11  1  0
 11 12  1  0
 12 13  1  0
 12 14  1  0
 14 15  2  0
 15 16  1  0
 16 17  1  0
 17 12  1  0
 16 18  2  0
 18 19  1  0
 19 20  2  0
 20 21  1  0
 21 17  2  0
 14 22  1  0
 22 23  2  0
 23 24  1  0
 24 25  2  0
 25 15  1  0
 13 26  2  0
 13 27  1  0
 27 28  1  0
  7 29  1  0
 29 30  1  0
 29 31  2  0
 30 32  1  0
 32 33  2  0
 33 34  1  0
 34 35  2  0
 35 36  1  0
 36 30  2  0
 32 37  1  0
 37 38  2  0
 38 39  1  0
 39 40  2  0
 40 41  1  0
 41 42  2  0
 42 37  1  0
 40 43  1  0
 28 44  1  0
  1  2  1  0
  2  3  1  0
 44 45  1  0
  3  4  1  0
 44 46  1  0
  4  5  1  0
 44 47  1  0
  5  6  1  0
 43 48  1  0
  6  1  1  0
 43 49  1  0
  4  7  1  0
 43 50  1  0
  2 51  1  0
  2 52  1  0
  3 53  1  0
  3 54  1  0
  4 55  1  0
  5 56  1  0
  5 57  1  0
  6 58  1  0
  6 59  1  0
  7 60  1  0
  8 61  1  0
  8 62  1  0
  9 63  1  0
  9 64  1  0
 10 65  1  0
 10 66  1  0
 11 67  1  0
 11 68  1  0
 18 69  1  0
 19 70  1  0
 20 71  1  0
 21 72  1  0
 22 73  1  0
 23 74  1  0
 24 75  1  0
 25 76  1  0
 27 77  1  0
 28 78  1  0
 28 79  1  0
 33 80  1  0
 34 81  1  0
 35 82  1  0
 36 83  1  0
 38 84  1  0
 39 85  1  0
 41 86  1  0
 42 87  1  0
M  END
> <Uni-Dock RESULT> 
ENERGY=   -3.647  LOWER_BOUND=    3.974  UPPER_BOUND=   14.478
INTER + INTRA:          -3.647
INTER:                  -3.647
INTRA:                   0.000
UNBOUND:                 0.000

$$$$
