
     RDKit          3D

 87 92  0  0  0  0  0  0  0  0999 V2000
   32.1141   10.1964   26.9500 N   0  0  0  0  0  0  0  0  0  0  0  0
   33.3822    9.7478   27.5486 C   0  0  0  0  0  0  0  0  0  0  0  0
   33.3226    8.2896   27.9937 C   0  0  0  0  0  0  0  0  0  0  0  0
   32.2708    8.0876   29.0913 C   0  0  0  0  0  0  0  0  0  0  0  0
   31.1447    9.1281   29.0042 C   0  0  0  0  0  0  0  0  0  0  0  0
   30.9260    9.5815   27.5651 C   0  0  0  0  0  0  0  0  0  0  0  0
   31.7542    6.7235   29.0458 N   0  0  0  0  0  0  0  0  0  0  0  0
   32.0069   11.6648   26.9143 C   0  0  0  0  0  0  0  0  0  0  0  0
   33.0583   12.3173   26.0064 C   0  0  0  0  0  0  0  0  0  0  0  0
   32.8906   13.8419   25.9691 C   0  0  0  0  0  0  0  0  0  0  0  0
   33.8874   14.4733   24.9871 C   0  0  0  0  0  0  0  0  0  0  0  0
   33.7738   16.0065   24.7716 C   0  0  0  0  0  0  0  0  0  0  0  0
   32.4364   16.4254   24.1095 C   0  0  0  0  0  0  0  0  0  0  0  0
   34.0866   16.8170   26.0423 C   0  0  0  0  0  0  0  0  0  0  0  0
   35.2998   17.5260   25.8878 C   0  0  0  0  0  0  0  0  0  0  0  0
   35.8267   17.2899   24.5620 C   0  0  0  0  0  0  0  0  0  0  0  0
   34.9507   16.4330   23.8634 C   0  0  0  0  0  0  0  0  0  0  0  0
   36.9679   17.7793   23.9477 C   0  0  0  0  0  0  0  0  0  0  0  0
   37.2263   17.4078   22.6243 C   0  0  0  0  0  0  0  0  0  0  0  0
   36.3471   16.5615   21.9295 C   0  0  0  0  0  0  0  0  0  0  0  0
   35.1974   16.0663   22.5463 C   0  0  0  0  0  0  0  0  0  0  0  0
   33.3324   16.9446   27.2018 C   0  0  0  0  0  0  0  0  0  0  0  0
   33.8216   17.7533   28.2294 C   0  0  0  0  0  0  0  0  0  0  0  0
   35.0400   18.4340   28.0869 C   0  0  0  0  0  0  0  0  0  0  0  0
   35.7843   18.3284   26.9091 C   0  0  0  0  0  0  0  0  0  0  0  0
   31.6200   15.6174   23.6690 O   0  0  0  0  0  0  0  0  0  0  0  0
   32.2176   17.7887   24.0074 N   0  0  0  0  0  0  0  0  0  0  0  0
   31.0874   18.3096   23.2396 C   0  0  0  0  0  0  0  0  0  0  0  0
   31.0992    6.1511   30.1166 C   0  0  0  0  0  0  0  0  0  0  0  0
   30.5757    4.7868   29.8578 C   0  0  0  0  0  0  0  0  0  0  0  0
   30.9164    6.7055   31.1917 O   0  0  0  0  0  0  0  0  0  0  0  0
   30.9542    3.6875   30.6523 C   0  0  0  0  0  0  0  0  0  0  0  0
   30.4177    2.4269   30.3265 C   0  0  0  0  0  0  0  0  0  0  0  0
   29.5342    2.2676   29.2553 C   0  0  0  0  0  0  0  0  0  0  0  0
   29.1660    3.3668   28.4850 C   0  0  0  0  0  0  0  0  0  0  0  0
   29.6836    4.6257   28.7835 C   0  0  0  0  0  0  0  0  0  0  0  0
   31.8947    3.7866   31.7764 C   0  0  0  0  0  0  0  0  0  0  0  0
   33.2300    3.3815   31.6313 C   0  0  0  0  0  0  0  0  0  0  0  0
   34.1229    3.4594   32.7053 C   0  0  0  0  0  0  0  0  0  0  0  0
   33.6987    3.9382   33.9534 C   0  0  0  0  0  0  0  0  0  0  0  0
   32.3671    4.3503   34.0995 C   0  0  0  0  0  0  0  0  0  0  0  0
   31.4759    4.2680   33.0250 C   0  0  0  0  0  0  0  0  0  0  0  0
   34.6718    4.0436   35.1020 C   0  0  0  0  0  0  0  0  0  0  0  0
   31.3152   18.3967   21.7276 C   0  0  0  0  0  0  0  0  0  0  0  0
   30.2266   18.9167   21.1137 F   0  0  0  0  0  0  0  0  0  0  0  0
   31.5733   17.2001   21.1628 F   0  0  0  0  0  0  0  0  0  0  0  0
   32.3591   19.2159   21.4523 F   0  0  0  0  0  0  0  0  0  0  0  0
   35.5762    3.0234   35.1272 F   0  0  0  0  0  0  0  0  0  0  0  0
   34.0691    4.0300   36.3248 F   0  0  0  0  0  0  0  0  0  0  0  0
   35.4059    5.1898   35.0597 F   0  0  0  0  0  0  0  0  0  0  0  0
   34.1863    9.8487   26.8110 H   0  0  0  0  0  0  0  0  0  0  0  0
   33.6534   10.3678   28.4135 H   0  0  0  0  0  0  0  0  0  0  0  0
   34.3037    7.9678   28.3638 H   0  0  0  0  0  0  0  0  0  0  0  0
   33.1075    7.6592   27.1203 H   0  0  0  0  0  0  0  0  0  0  0  0
   32.7513    8.2047   30.0713 H   0  0  0  0  0  0  0  0  0  0  0  0
   30.2063    8.7422   29.4178 H   0  0  0  0  0  0  0  0  0  0  0  0
   31.4131   10.0020   29.6121 H   0  0  0  0  0  0  0  0  0  0  0  0
   30.6541    8.7074   26.9592 H   0  0  0  0  0  0  0  0  0  0  0  0
   30.0545   10.2463   27.5183 H   0  0  0  0  0  0  0  0  0  0  0  0
   31.8159    6.2064   28.1778 H   0  0  0  0  0  0  0  0  0  0  0  0
   32.0694   12.0810   27.9279 H   0  0  0  0  0  0  0  0  0  0  0  0
   31.0222   11.9439   26.5168 H   0  0  0  0  0  0  0  0  0  0  0  0
   34.0707   12.0877   26.3584 H   0  0  0  0  0  0  0  0  0  0  0  0
   32.9640   11.9107   24.9917 H   0  0  0  0  0  0  0  0  0  0  0  0
   31.8622   14.0907   25.6871 H   0  0  0  0  0  0  0  0  0  0  0  0
   33.0581   14.2255   26.9801 H   0  0  0  0  0  0  0  0  0  0  0  0
   33.7683   13.9702   24.0174 H   0  0  0  0  0  0  0  0  0  0  0  0
   34.9018   14.2231   25.3305 H   0  0  0  0  0  0  0  0  0  0  0  0
   37.6522   18.4382   24.4717 H   0  0  0  0  0  0  0  0  0  0  0  0
   38.1179   17.7801   22.1249 H   0  0  0  0  0  0  0  0  0  0  0  0
   36.5658   16.2877   20.8996 H   0  0  0  0  0  0  0  0  0  0  0  0
   34.5203   15.4107   22.0055 H   0  0  0  0  0  0  0  0  0  0  0  0
   32.3778   16.4398   27.3165 H   0  0  0  0  0  0  0  0  0  0  0  0
   33.2513   17.8610   29.1498 H   0  0  0  0  0  0  0  0  0  0  0  0
   35.4033   19.0591   28.8997 H   0  0  0  0  0  0  0  0  0  0  0  0
   36.7159   18.8749   26.8043 H   0  0  0  0  0  0  0  0  0  0  0  0
   33.0033   18.4074   24.1869 H   0  0  0  0  0  0  0  0  0  0  0  0
   30.2088   17.6850   23.4381 H   0  0  0  0  0  0  0  0  0  0  0  0
   30.8803   19.3103   23.6338 H   0  0  0  0  0  0  0  0  0  0  0  0
   30.6889    1.5538   30.9193 H   0  0  0  0  0  0  0  0  0  0  0  0
   29.1311    1.2833   29.0280 H   0  0  0  0  0  0  0  0  0  0  0  0
   28.4715    3.2439   27.6573 H   0  0  0  0  0  0  0  0  0  0  0  0
   29.3771    5.4842   28.1899 H   0  0  0  0  0  0  0  0  0  0  0  0
   33.5856    3.0062   30.6734 H   0  0  0  0  0  0  0  0  0  0  0  0
   35.1556    3.1440   32.5644 H   0  0  0  0  0  0  0  0  0  0  0  0
   32.0128    4.7456   35.0506 H   0  0  0  0  0  0  0  0  0  0  0  0
   30.4496    4.6074   33.1598 H   0  0  0  0  0  0  0  0  0  0  0  0
  1  8  1  0
  8  9  1  0
  9 10  1  0
 10 11  1  0
 11 12  1  0
 12 13  1  0
 12 14  1  0
 14 15  2  0
 15 16  1  0
 16 17  1  0
 17 12  1  0
 16 18  2  0
 18 19  1  0
 19 20  2  0
 20 21  1  0
 21 17  2  0
 14 22  1  0
 22 23  2  0
 23 24  1  0
 24 25  2  0
 25 15  1  0
 13 26  2  0
 13 27  1  0
 27 28  1  0
  7 29  1  0
 29 30  1  0
 29 31  2  0
 30 32  1  0
 32 33  2  0
 33 34  1  0
 34 35  2  0
 35 36  1  0
 36 30  2  0
 32 37  1  0
 37 38  2  0
 38 39  1  0
 39 40  2  0
 40 41  1  0
 41 42  2  0
 42 37  1  0
 40 43  1  0
 28 44  1  0
  1  2  1  0
  2  3  1  0
 44 45  1  0
  3  4  1  0
 44 46  1  0
  4  5  1  0
 44 47  1  0
  5  6  1  0
 43 48  1  0
  6  1  1  0
 43 49  1  0
  4  7  1  0
 43 50  1  0
  2 51  1  0
  2 52  1  0
  3 53  1  0
  3 54  1  0
  4 55  1  0
  5 56  1  0
  5 57  1  0
  6 58  1  0
  6 59  1  0
  7 60  1  0
  8 61  1  0
  8 62  1  0
  9 63  1  0
  9 64  1  0
 10 65  1  0
 10 66  1  0
 11 67  1  0
 11 68  1  0
 18 69  1  0
 19 70  1  0
 20 71  1  0
 21 72  1  0
 22 73  1  0
 23 74  1  0
 24 75  1  0
 25 76  1  0
 27 77  1  0
 28 78  1  0
 28 79  1  0
 33 80  1  0
 34 81  1  0
 35 82  1  0
 36 83  1  0
 38 84  1  0
 39 85  1  0
 41 86  1  0
 42 87  1  0
M  END
> <Uni-Dock RESULT> 
ENERGY=   -4.171  LOWER_BOUND=    0.000  UPPER_BOUND=    0.000
INTER + INTRA:          -4.171
INTER:                  -4.171
INTRA:                   0.000
UNBOUND:                 0.000

$$$$

     RDKit          3D

 87 92  0  0  0  0  0  0  0  0999 V2000
   29.2287   11.2269   27.2699 N   0  0  0  0  0  0  0  0  0  0  0  0
   28.2617   10.1487   27.5346 C   0  0  0  0  0  0  0  0  0  0  0  0
   28.6090    9.3635   28.7958 C   0  0  0  0  0  0  0  0  0  0  0  0
   29.9632    8.6579   28.6544 C   0  0  0  0  0  0  0  0  0  0  0  0
   30.8914    9.3906   27.6746 C   0  0  0  0  0  0  0  0  0  0  0  0
   30.6063   10.8883   27.6639 C   0  0  0  0  0  0  0  0  0  0  0  0
   30.5812    8.4912   29.9659 N   0  0  0  0  0  0  0  0  0  0  0  0
   29.1644   11.6992   25.8763 C   0  0  0  0  0  0  0  0  0  0  0  0
   27.8216   12.3576   25.5315 C   0  0  0  0  0  0  0  0  0  0  0  0
   27.8082   12.8665   24.0840 C   0  0  0  0  0  0  0  0  0  0  0  0
   26.4964   13.6039   23.7806 C   0  0  0  0  0  0  0  0  0  0  0  0
   26.3759   14.2586   22.3783 C   0  0  0  0  0  0  0  0  0  0  0  0
   27.3917   15.4087   22.1598 C   0  0  0  0  0  0  0  0  0  0  0  0
   26.3869   13.2311   21.2321 C   0  0  0  0  0  0  0  0  0  0  0  0
   25.1176   13.1711   20.6125 C   0  0  0  0  0  0  0  0  0  0  0  0
   24.2353   14.1332   21.2346 C   0  0  0  0  0  0  0  0  0  0  0  0
   24.9381   14.8140   22.2506 C   0  0  0  0  0  0  0  0  0  0  0  0
   22.9154   14.4518   20.9598 C   0  0  0  0  0  0  0  0  0  0  0  0
   22.3019   15.4618   21.7078 C   0  0  0  0  0  0  0  0  0  0  0  0
   23.0078   16.1432   22.7126 C   0  0  0  0  0  0  0  0  0  0  0  0
   24.3371   15.8236   22.9921 C   0  0  0  0  0  0  0  0  0  0  0  0
   27.4442   12.4636   20.7605 C   0  0  0  0  0  0  0  0  0  0  0  0
   27.2136   11.5980   19.6895 C   0  0  0  0  0  0  0  0  0  0  0  0
   25.9462   11.5176   19.0935 C   0  0  0  0  0  0  0  0  0  0  0  0
   24.8902   12.3110   19.5494 C   0  0  0  0  0  0  0  0  0  0  0  0
   28.1127   15.8502   23.0536 O   0  0  0  0  0  0  0  0  0  0  0  0
   27.4236   15.9483   20.8852 N   0  0  0  0  0  0  0  0  0  0  0  0
   28.2003   17.1546   20.6028 C   0  0  0  0  0  0  0  0  0  0  0  0
   31.5911    7.5784   30.1902 C   0  0  0  0  0  0  0  0  0  0  0  0
   32.1497    7.6067   31.5648 C   0  0  0  0  0  0  0  0  0  0  0  0
   32.0372    6.8187   29.3415 O   0  0  0  0  0  0  0  0  0  0  0  0
   32.1527    6.4617   32.3845 C   0  0  0  0  0  0  0  0  0  0  0  0
   32.6921    6.5834   33.6796 C   0  0  0  0  0  0  0  0  0  0  0  0
   33.2136    7.7960   34.1390 C   0  0  0  0  0  0  0  0  0  0  0  0
   33.2082    8.9157   33.3123 C   0  0  0  0  0  0  0  0  0  0  0  0
   32.6785    8.8244   32.0267 C   0  0  0  0  0  0  0  0  0  0  0  0
   31.6000    5.1660   31.9676 C   0  0  0  0  0  0  0  0  0  0  0  0
   30.3355    4.7504   32.4110 C   0  0  0  0  0  0  0  0  0  0  0  0
   29.8147    3.5097   32.0287 C   0  0  0  0  0  0  0  0  0  0  0  0
   30.5503    2.6513   31.1986 C   0  0  0  0  0  0  0  0  0  0  0  0
   31.8108    3.0668   30.7483 C   0  0  0  0  0  0  0  0  0  0  0  0
   32.3305    4.3062   31.1350 C   0  0  0  0  0  0  0  0  0  0  0  0
   29.9738    1.3246   30.7688 C   0  0  0  0  0  0  0  0  0  0  0  0
   27.5092   18.4717   20.9679 C   0  0  0  0  0  0  0  0  0  0  0  0
   28.2942   19.5250   20.6413 F   0  0  0  0  0  0  0  0  0  0  0  0
   27.2170   18.5683   22.2804 F   0  0  0  0  0  0  0  0  0  0  0  0
   26.3512   18.6064   20.2770 F   0  0  0  0  0  0  0  0  0  0  0  0
   29.2339    0.7258   31.7453 F   0  0  0  0  0  0  0  0  0  0  0  0
   30.9222    0.4116   30.4150 F   0  0  0  0  0  0  0  0  0  0  0  0
   29.1460    1.4398   29.6936 F   0  0  0  0  0  0  0  0  0  0  0  0
   27.2634   10.5815   27.6639 H   0  0  0  0  0  0  0  0  0  0  0  0
   28.2070    9.4492   26.6898 H   0  0  0  0  0  0  0  0  0  0  0  0
   27.8296    8.6203   29.0040 H   0  0  0  0  0  0  0  0  0  0  0  0
   28.6091   10.0494   29.6537 H   0  0  0  0  0  0  0  0  0  0  0  0
   29.7990    7.6474   28.2582 H   0  0  0  0  0  0  0  0  0  0  0  0
   31.9468    9.2160   27.9118 H   0  0  0  0  0  0  0  0  0  0  0  0
   30.7332    8.9944   26.6630 H   0  0  0  0  0  0  0  0  0  0  0  0
   30.7685   11.2837   28.6750 H   0  0  0  0  0  0  0  0  0  0  0  0
   31.3459   11.3980   27.0337 H   0  0  0  0  0  0  0  0  0  0  0  0
   30.3095    9.1133   30.7167 H   0  0  0  0  0  0  0  0  0  0  0  0
   29.3742   10.8771   25.1803 H   0  0  0  0  0  0  0  0  0  0  0  0
   29.9433   12.4565   25.7170 H   0  0  0  0  0  0  0  0  0  0  0  0
   26.9973   11.6460   25.6571 H   0  0  0  0  0  0  0  0  0  0  0  0
   27.6405   13.1937   26.2184 H   0  0  0  0  0  0  0  0  0  0  0  0
   28.6671   13.5252   23.9192 H   0  0  0  0  0  0  0  0  0  0  0  0
   27.9213   12.0034   23.4210 H   0  0  0  0  0  0  0  0  0  0  0  0
   26.3627   14.3808   24.5463 H   0  0  0  0  0  0  0  0  0  0  0  0
   25.6696   12.8937   23.9287 H   0  0  0  0  0  0  0  0  0  0  0  0
   22.3608   13.9367   20.1825 H   0  0  0  0  0  0  0  0  0  0  0  0
   21.2657   15.7257   21.5084 H   0  0  0  0  0  0  0  0  0  0  0  0
   22.5120   16.9278   23.2802 H   0  0  0  0  0  0  0  0  0  0  0  0
   24.8794   16.3524   23.7712 H   0  0  0  0  0  0  0  0  0  0  0  0
   28.4351   12.5317   21.1993 H   0  0  0  0  0  0  0  0  0  0  0  0
   28.0254   10.9813   19.3093 H   0  0  0  0  0  0  0  0  0  0  0  0
   25.7878   10.8367   18.2601 H   0  0  0  0  0  0  0  0  0  0  0  0
   23.9197   12.2529   19.0676 H   0  0  0  0  0  0  0  0  0  0  0  0
   26.6710   15.7006   20.2491 H   0  0  0  0  0  0  0  0  0  0  0  0
   29.1579   17.0891   21.1320 H   0  0  0  0  0  0  0  0  0  0  0  0
   28.4123   17.1416   19.5282 H   0  0  0  0  0  0  0  0  0  0  0  0
   32.7106    5.7181   34.3416 H   0  0  0  0  0  0  0  0  0  0  0  0
   33.6282    7.8614   35.1424 H   0  0  0  0  0  0  0  0  0  0  0  0
   33.6224    9.8566   33.6670 H   0  0  0  0  0  0  0  0  0  0  0  0
   32.6948    9.6978   31.3785 H   0  0  0  0  0  0  0  0  0  0  0  0
   29.7433    5.3972   33.0558 H   0  0  0  0  0  0  0  0  0  0  0  0
   28.8281    3.2136   32.3820 H   0  0  0  0  0  0  0  0  0  0  0  0
   32.3977    2.4312   30.0865 H   0  0  0  0  0  0  0  0  0  0  0  0
   33.3066    4.6123   30.7606 H   0  0  0  0  0  0  0  0  0  0  0  0
  1  8  1  0
  8  9  1  0
  9 10  1  0
 10 11  1  0
 11 12  1  0
 12 13  1  0
 12 14  1  0
 14 15  2  0
 15 16  1  0
 16 17  1  0
 17 12  1  0
 16 18  2  0
 18 19  1  0
 19 20  2  0
 20 21  1  0
 21 17  2  0
 14 22  1  0
 22 23  2  0
 23 24  1  0
 24 25  2  0
 25 15  1  0
 13 26  2  0
 13 27  1  0
 27 28  1  0
  7 29  1  0
 29 30  1  0
 29 31  2  0
 30 32  1  0
 32 33  2  0
 33 34  1  0
 34 35  2  0
 35 36  1  0
 36 30  2  0
 32 37  1  0
 37 38  2  0
 38 39  1  0
 39 40  2  0
 40 41  1  0
 41 42  2  0
 42 37  1  0
 40 43  1  0
 28 44  1  0
  1  2  1  0
  2  3  1  0
 44 45  1  0
  3  4  1  0
 44 46  1  0
  4  5  1  0
 44 47  1  0
  5  6  1  0
 43 48  1  0
  6  1  1  0
 43 49  1  0
  4  7  1  0
 43 50  1  0
  2 51  1  0
  2 52  1  0
  3 53  1  0
  3 54  1  0
  4 55  1  0
  5 56  1  0
  5 57  1  0
  6 58  1  0
  6 59  1  0
  7 60  1  0
  8 61  1  0
  8 62  1  0
  9 63  1  0
  9 64  1  0
 10 65  1  0
 10 66  1  0
 11 67  1  0
 11 68  1  0
 18 69  1  0
 19 70  1  0
 20 71  1  0
 21 72  1  0
 22 73  1  0
 23 74  1  0
 24 75  1  0
 25 76  1  0
 27 77  1  0
 28 78  1  0
 28 79  1  0
 33 80  1  0
 34 81  1  0
 35 82  1  0
 36 83  1  0
 38 84  1  0
 39 85  1  0
 41 86  1  0
 42 87  1  0
M  END
> <Uni-Dock RESULT> 
ENERGY=   -4.165  LOWER_BOUND=    5.244  UPPER_BOUND=    7.632
INTER + INTRA:          -4.165
INTER:                  -4.165
INTRA:                   0.000
UNBOUND:                 0.000

$$$$

     RDKit          3D

 87 92  0  0  0  0  0  0  0  0999 V2000
   32.4140   12.9867   25.2664 N   0  0  0  0  0  0  0  0  0  0  0  0
   32.2207   11.6622   25.8794 C   0  0  0  0  0  0  0  0  0  0  0  0
   32.7987   11.5928   27.2898 C   0  0  0  0  0  0  0  0  0  0  0  0
   34.3170   11.8084   27.2779 C   0  0  0  0  0  0  0  0  0  0  0  0
   34.7656   12.6585   26.0803 C   0  0  0  0  0  0  0  0  0  0  0  0
   33.6741   13.6374   25.6621 C   0  0  0  0  0  0  0  0  0  0  0  0
   34.7514   12.3852   28.5461 N   0  0  0  0  0  0  0  0  0  0  0  0
   32.2612   12.9473   23.8020 C   0  0  0  0  0  0  0  0  0  0  0  0
   30.8390   12.5753   23.3609 C   0  0  0  0  0  0  0  0  0  0  0  0
   30.7129   12.5797   21.8318 C   0  0  0  0  0  0  0  0  0  0  0  0
   29.2652   12.2972   21.4062 C   0  0  0  0  0  0  0  0  0  0  0  0
   28.9631   12.3625   19.8850 C   0  0  0  0  0  0  0  0  0  0  0  0
   29.1487   13.7830   19.2932 C   0  0  0  0  0  0  0  0  0  0  0  0
   29.7044   11.2815   19.0779 C   0  0  0  0  0  0  0  0  0  0  0  0
   28.7891   10.3298   18.5729 C   0  0  0  0  0  0  0  0  0  0  0  0
   27.4455   10.7131   18.9458 C   0  0  0  0  0  0  0  0  0  0  0  0
   27.4968   11.9125   19.6864 C   0  0  0  0  0  0  0  0  0  0  0  0
   26.2289   10.1121   18.6667 C   0  0  0  0  0  0  0  0  0  0  0  0
   25.0596   10.7225   19.1314 C   0  0  0  0  0  0  0  0  0  0  0  0
   25.1144   11.9213   19.8608 C   0  0  0  0  0  0  0  0  0  0  0  0
   26.3386   12.5282   20.1442 C   0  0  0  0  0  0  0  0  0  0  0  0
   31.0589   11.1894   18.7841 C   0  0  0  0  0  0  0  0  0  0  0  0
   31.5025   10.1106   18.0167 C   0  0  0  0  0  0  0  0  0  0  0  0
   30.5975    9.1505   17.5400 C   0  0  0  0  0  0  0  0  0  0  0  0
   29.2311    9.2592   17.8113 C   0  0  0  0  0  0  0  0  0  0  0  0
   29.3675   14.7776   19.9834 O   0  0  0  0  0  0  0  0  0  0  0  0
   29.0203   13.8827   17.9183 N   0  0  0  0  0  0  0  0  0  0  0  0
   28.9882   15.1893   17.2627 C   0  0  0  0  0  0  0  0  0  0  0  0
   36.0657   12.3356   28.9625 C   0  0  0  0  0  0  0  0  0  0  0  0
   36.3322   13.0437   30.2392 C   0  0  0  0  0  0  0  0  0  0  0  0
   36.9681   11.7927   28.3399 O   0  0  0  0  0  0  0  0  0  0  0  0
   36.8933   12.3813   31.3480 C   0  0  0  0  0  0  0  0  0  0  0  0
   37.1001   13.1290   32.5233 C   0  0  0  0  0  0  0  0  0  0  0  0
   36.7669   14.4847   32.5905 C   0  0  0  0  0  0  0  0  0  0  0  0
   36.2194   15.1245   31.4824 C   0  0  0  0  0  0  0  0  0  0  0  0
   36.0017   14.4083   30.3070 C   0  0  0  0  0  0  0  0  0  0  0  0
   37.2438   10.9547   31.3467 C   0  0  0  0  0  0  0  0  0  0  0  0
   36.4066   10.0106   31.9599 C   0  0  0  0  0  0  0  0  0  0  0  0
   36.7470    8.6539   31.9743 C   0  0  0  0  0  0  0  0  0  0  0  0
   37.9378    8.2099   31.3812 C   0  0  0  0  0  0  0  0  0  0  0  0
   38.7727    9.1498   30.7617 C   0  0  0  0  0  0  0  0  0  0  0  0
   38.4316   10.5060   30.7519 C   0  0  0  0  0  0  0  0  0  0  0  0
   38.2885    6.7422   31.3777 C   0  0  0  0  0  0  0  0  0  0  0  0
   27.6264   15.8899   17.2783 C   0  0  0  0  0  0  0  0  0  0  0  0
   27.6944   17.0725   16.6234 F   0  0  0  0  0  0  0  0  0  0  0  0
   27.1733   16.1354   18.5241 F   0  0  0  0  0  0  0  0  0  0  0  0
   26.6976   15.1341   16.6437 F   0  0  0  0  0  0  0  0  0  0  0  0
   37.9154    6.1042   32.5237 F   0  0  0  0  0  0  0  0  0  0  0  0
   39.6244    6.5053   31.2441 F   0  0  0  0  0  0  0  0  0  0  0  0
   37.6852    6.0646   30.3621 F   0  0  0  0  0  0  0  0  0  0  0  0
   31.1487   11.4428   25.9368 H   0  0  0  0  0  0  0  0  0  0  0  0
   32.6830   10.8729   25.2716 H   0  0  0  0  0  0  0  0  0  0  0  0
   32.5710   10.6203   27.7432 H   0  0  0  0  0  0  0  0  0  0  0  0
   32.2985   12.3430   27.9169 H   0  0  0  0  0  0  0  0  0  0  0  0
   34.8148   10.8336   27.1939 H   0  0  0  0  0  0  0  0  0  0  0  0
   35.6901   13.2050   26.2975 H   0  0  0  0  0  0  0  0  0  0  0  0
   34.9901   11.9977   25.2328 H   0  0  0  0  0  0  0  0  0  0  0  0
   33.4533   14.2997   26.5091 H   0  0  0  0  0  0  0  0  0  0  0  0
   34.0558   14.2971   24.8729 H   0  0  0  0  0  0  0  0  0  0  0  0
   34.0813   12.8992   29.1042 H   0  0  0  0  0  0  0  0  0  0  0  0
   32.9897   12.2580   23.3566 H   0  0  0  0  0  0  0  0  0  0  0  0
   32.4742   13.9431   23.3914 H   0  0  0  0  0  0  0  0  0  0  0  0
   30.5671   11.5792   23.7290 H   0  0  0  0  0  0  0  0  0  0  0  0
   30.1268   13.2898   23.7921 H   0  0  0  0  0  0  0  0  0  0  0  0
   31.0482   13.5453   21.4392 H   0  0  0  0  0  0  0  0  0  0  0  0
   31.3828   11.8109   21.4349 H   0  0  0  0  0  0  0  0  0  0  0  0
   28.6158   13.0147   21.9269 H   0  0  0  0  0  0  0  0  0  0  0  0
   28.9877   11.3066   21.7955 H   0  0  0  0  0  0  0  0  0  0  0  0
   26.1727    9.1890   18.0994 H   0  0  0  0  0  0  0  0  0  0  0  0
   24.0946   10.2655   18.9240 H   0  0  0  0  0  0  0  0  0  0  0  0
   24.1922   12.3807   20.2101 H   0  0  0  0  0  0  0  0  0  0  0  0
   26.3767   13.4551   20.7100 H   0  0  0  0  0  0  0  0  0  0  0  0
   31.7667   11.9370   19.1294 H   0  0  0  0  0  0  0  0  0  0  0  0
   32.5605   10.0141   17.7816 H   0  0  0  0  0  0  0  0  0  0  0  0
   30.9639    8.3177   16.9438 H   0  0  0  0  0  0  0  0  0  0  0  0
   28.5393    8.5200   17.4210 H   0  0  0  0  0  0  0  0  0  0  0  0
   28.6328   13.0855   17.4216 H   0  0  0  0  0  0  0  0  0  0  0  0
   29.7349   15.8385   17.7343 H   0  0  0  0  0  0  0  0  0  0  0  0
   29.2990   15.0230   16.2256 H   0  0  0  0  0  0  0  0  0  0  0  0
   37.5320   12.6491   33.4010 H   0  0  0  0  0  0  0  0  0  0  0  0
   36.9412   15.0399   33.5095 H   0  0  0  0  0  0  0  0  0  0  0  0
   35.9688   16.1815   31.5323 H   0  0  0  0  0  0  0  0  0  0  0  0
   35.5915   14.9184   29.4383 H   0  0  0  0  0  0  0  0  0  0  0  0
   35.4763   10.3281   32.4274 H   0  0  0  0  0  0  0  0  0  0  0  0
   36.0767    7.9408   32.4519 H   0  0  0  0  0  0  0  0  0  0  0  0
   39.6943    8.8334   30.2749 H   0  0  0  0  0  0  0  0  0  0  0  0
   39.0903   11.2150   30.2519 H   0  0  0  0  0  0  0  0  0  0  0  0
  1  8  1  0
  8  9  1  0
  9 10  1  0
 10 11  1  0
 11 12  1  0
 12 13  1  0
 12 14  1  0
 14 15  2  0
 15 16  1  0
 16 17  1  0
 17 12  1  0
 16 18  2  0
 18 19  1  0
 19 20  2  0
 20 21  1  0
 21 17  2  0
 14 22  1  0
 22 23  2  0
 23 24  1  0
 24 25  2  0
 25 15  1  0
 13 26  2  0
 13 27  1  0
 27 28  1  0
  7 29  1  0
 29 30  1  0
 29 31  2  0
 30 32  1  0
 32 33  2  0
 33 34  1  0
 34 35  2  0
 35 36  1  0
 36 30  2  0
 32 37  1  0
 37 38  2  0
 38 39  1  0
 39 40  2  0
 40 41  1  0
 41 42  2  0
 42 37  1  0
 40 43  1  0
 28 44  1  0
  1  2  1  0
  2  3  1  0
 44 45  1  0
  3  4  1  0
 44 46  1  0
  4  5  1  0
 44 47  1  0
  5  6  1  0
 43 48  1  0
  6  1  1  0
 43 49  1  0
  4  7  1  0
 43 50  1  0
  2 51  1  0
  2 52  1  0
  3 53  1  0
  3 54  1  0
  4 55  1  0
  5 56  1  0
  5 57  1  0
  6 58  1  0
  6 59  1  0
  7 60  1  0
  8 61  1  0
  8 62  1  0
  9 63  1  0
  9 64  1  0
 10 65  1  0
 10 66  1  0
 11 67  1  0
 11 68  1  0
 18 69  1  0
 19 70  1  0
 20 71  1  0
 21 72  1  0
 22 73  1  0
 23 74  1  0
 24 75  1  0
 25 76  1  0
 27 77  1  0
 28 78  1  0
 28 79  1  0
 33 80  1  0
 34 81  1  0
 35 82  1  0
 36 83  1  0
 38 84  1  0
 39 85  1  0
 41 86  1  0
 42 87  1  0
M  END
> <Uni-Dock RESULT> 
ENERGY=   -3.958  LOWER_BOUND=    6.248  UPPER_BOUND=    9.022
INTER + INTRA:          -3.958
INTER:                  -3.958
INTRA:                   0.000
UNBOUND:                 0.000

$$$$

     RDKit          3D

 87 92  0  0  0  0  0  0  0  0999 V2000
   33.7407   10.2280   28.2497 N   0  0  0  0  0  0  0  0  0  0  0  0
   34.9311   11.0554   28.5067 C   0  0  0  0  0  0  0  0  0  0  0  0
   34.7429   12.4938   28.0341 C   0  0  0  0  0  0  0  0  0  0  0  0
   34.5352   12.5559   26.5159 C   0  0  0  0  0  0  0  0  0  0  0  0
   33.9182   11.2604   25.9687 C   0  0  0  0  0  0  0  0  0  0  0  0
   33.0305   10.5914   27.0122 C   0  0  0  0  0  0  0  0  0  0  0  0
   33.7374   13.7268   26.1664 N   0  0  0  0  0  0  0  0  0  0  0  0
   34.0462    8.7879   28.2960 C   0  0  0  0  0  0  0  0  0  0  0  0
   34.4905    8.3174   29.6877 C   0  0  0  0  0  0  0  0  0  0  0  0
   34.7648    6.8078   29.7021 C   0  0  0  0  0  0  0  0  0  0  0  0
   35.1182    6.3343   31.1189 C   0  0  0  0  0  0  0  0  0  0  0  0
   35.3309    4.8083   31.3086 C   0  0  0  0  0  0  0  0  0  0  0  0
   34.0423    3.9838   31.0592 C   0  0  0  0  0  0  0  0  0  0  0  0
   36.5419    4.2684   30.5266 C   0  0  0  0  0  0  0  0  0  0  0  0
   37.5685    3.8782   31.4167 C   0  0  0  0  0  0  0  0  0  0  0  0
   37.1218    4.0744   32.7780 C   0  0  0  0  0  0  0  0  0  0  0  0
   35.8076    4.5864   32.7630 C   0  0  0  0  0  0  0  0  0  0  0  0
   37.7620    3.8195   33.9799 C   0  0  0  0  0  0  0  0  0  0  0  0
   37.0755    4.0774   35.1708 C   0  0  0  0  0  0  0  0  0  0  0  0
   35.7639    4.5789   35.1514 C   0  0  0  0  0  0  0  0  0  0  0  0
   35.1172    4.8375   33.9422 C   0  0  0  0  0  0  0  0  0  0  0  0
   36.6879    4.0977   29.1558 C   0  0  0  0  0  0  0  0  0  0  0  0
   37.8890    3.5742   28.6736 C   0  0  0  0  0  0  0  0  0  0  0  0
   38.9188    3.2140   29.5556 C   0  0  0  0  0  0  0  0  0  0  0  0
   38.7606    3.3588   30.9364 C   0  0  0  0  0  0  0  0  0  0  0  0
   32.9388    4.4961   30.8765 O   0  0  0  0  0  0  0  0  0  0  0  0
   34.1948    2.6080   31.0857 N   0  0  0  0  0  0  0  0  0  0  0  0
   33.0295    1.7253   31.0507 C   0  0  0  0  0  0  0  0  0  0  0  0
   33.7120   14.2418   24.8868 C   0  0  0  0  0  0  0  0  0  0  0  0
   32.7834   15.3848   24.7035 C   0  0  0  0  0  0  0  0  0  0  0  0
   34.3605   13.7970   23.9497 O   0  0  0  0  0  0  0  0  0  0  0  0
   33.2333   16.6341   24.2345 C   0  0  0  0  0  0  0  0  0  0  0  0
   32.2842   17.6659   24.1027 C   0  0  0  0  0  0  0  0  0  0  0  0
   30.9384   17.4608   24.4197 C   0  0  0  0  0  0  0  0  0  0  0  0
   30.5107   16.2173   24.8756 C   0  0  0  0  0  0  0  0  0  0  0  0
   31.4289   15.1788   25.0177 C   0  0  0  0  0  0  0  0  0  0  0  0
   34.6367   16.9180   23.9060 C   0  0  0  0  0  0  0  0  0  0  0  0
   35.4521   17.6286   24.7996 C   0  0  0  0  0  0  0  0  0  0  0  0
   36.7839   17.9146   24.4813 C   0  0  0  0  0  0  0  0  0  0  0  0
   37.3302   17.5022   23.2572 C   0  0  0  0  0  0  0  0  0  0  0  0
   36.5201   16.7859   22.3656 C   0  0  0  0  0  0  0  0  0  0  0  0
   35.1880   16.5045   22.6849 C   0  0  0  0  0  0  0  0  0  0  0  0
   38.7744   17.7914   22.9291 C   0  0  0  0  0  0  0  0  0  0  0  0
   32.3360    1.5122   32.3994 C   0  0  0  0  0  0  0  0  0  0  0  0
   31.2927    0.6601   32.2663 F   0  0  0  0  0  0  0  0  0  0  0  0
   31.8669    2.6554   32.9383 F   0  0  0  0  0  0  0  0  0  0  0  0
   33.1936    0.9582   33.2906 F   0  0  0  0  0  0  0  0  0  0  0  0
   39.1922   19.0033   23.3940 F   0  0  0  0  0  0  0  0  0  0  0  0
   39.0334   17.8027   21.5907 F   0  0  0  0  0  0  0  0  0  0  0  0
   39.6250   16.8739   23.4668 F   0  0  0  0  0  0  0  0  0  0  0  0
   35.1349   11.0719   29.5832 H   0  0  0  0  0  0  0  0  0  0  0  0
   35.8185   10.6372   28.0132 H   0  0  0  0  0  0  0  0  0  0  0  0
   35.6161   13.0983   28.3085 H   0  0  0  0  0  0  0  0  0  0  0  0
   33.8903   12.9353   28.5674 H   0  0  0  0  0  0  0  0  0  0  0  0
   35.5096   12.6876   26.0279 H   0  0  0  0  0  0  0  0  0  0  0  0
   33.3425   11.4428   25.0544 H   0  0  0  0  0  0  0  0  0  0  0  0
   34.7227   10.5661   25.6929 H   0  0  0  0  0  0  0  0  0  0  0  0
   32.2245   11.2852   27.2842 H   0  0  0  0  0  0  0  0  0  0  0  0
   32.5262    9.7260   26.5643 H   0  0  0  0  0  0  0  0  0  0  0  0
   33.1293   14.1309   26.8676 H   0  0  0  0  0  0  0  0  0  0  0  0
   34.8062    8.5305   27.5474 H   0  0  0  0  0  0  0  0  0  0  0  0
   33.1423    8.2202   28.0389 H   0  0  0  0  0  0  0  0  0  0  0  0
   35.4025    8.8390   30.0004 H   0  0  0  0  0  0  0  0  0  0  0  0
   33.7084    8.5574   30.4187 H   0  0  0  0  0  0  0  0  0  0  0  0
   33.8873    6.2723   29.3248 H   0  0  0  0  0  0  0  0  0  0  0  0
   35.5939    6.6081   29.0166 H   0  0  0  0  0  0  0  0  0  0  0  0
   34.3169    6.6662   31.7938 H   0  0  0  0  0  0  0  0  0  0  0  0
   36.0208    6.8753   31.4388 H   0  0  0  0  0  0  0  0  0  0  0  0
   38.7730    3.4268   34.0084 H   0  0  0  0  0  0  0  0  0  0  0  0
   37.5614    3.8854   36.1248 H   0  0  0  0  0  0  0  0  0  0  0  0
   35.2473    4.7694   36.0897 H   0  0  0  0  0  0  0  0  0  0  0  0
   34.1027    5.2267   33.9316 H   0  0  0  0  0  0  0  0  0  0  0  0
   35.8908    4.3530   28.4640 H   0  0  0  0  0  0  0  0  0  0  0  0
   38.0282    3.4399   27.6028 H   0  0  0  0  0  0  0  0  0  0  0  0
   39.8468    2.8080   29.1592 H   0  0  0  0  0  0  0  0  0  0  0  0
   39.5577    3.0590   31.6089 H   0  0  0  0  0  0  0  0  0  0  0  0
   35.0687    2.2370   31.4479 H   0  0  0  0  0  0  0  0  0  0  0  0
   32.3062    2.1252   30.3306 H   0  0  0  0  0  0  0  0  0  0  0  0
   33.3825    0.7617   30.6676 H   0  0  0  0  0  0  0  0  0  0  0  0
   32.5966   18.6458   23.7430 H   0  0  0  0  0  0  0  0  0  0  0  0
   30.2253   18.2739   24.3046 H   0  0  0  0  0  0  0  0  0  0  0  0
   29.4619   16.0556   25.1134 H   0  0  0  0  0  0  0  0  0  0  0  0
   31.0851   14.2037   25.3560 H   0  0  0  0  0  0  0  0  0  0  0  0
   35.0535   17.9603   25.7567 H   0  0  0  0  0  0  0  0  0  0  0  0
   37.3970   18.4626   25.1952 H   0  0  0  0  0  0  0  0  0  0  0  0
   36.9212   16.4346   21.4158 H   0  0  0  0  0  0  0  0  0  0  0  0
   34.5828   15.9344   21.9811 H   0  0  0  0  0  0  0  0  0  0  0  0
  1  8  1  0
  8  9  1  0
  9 10  1  0
 10 11  1  0
 11 12  1  0
 12 13  1  0
 12 14  1  0
 14 15  2  0
 15 16  1  0
 16 17  1  0
 17 12  1  0
 16 18  2  0
 18 19  1  0
 19 20  2  0
 20 21  1  0
 21 17  2  0
 14 22  1  0
 22 23  2  0
 23 24  1  0
 24 25  2  0
 25 15  1  0
 13 26  2  0
 13 27  1  0
 27 28  1  0
  7 29  1  0
 29 30  1  0
 29 31  2  0
 30 32  1  0
 32 33  2  0
 33 34  1  0
 34 35  2  0
 35 36  1  0
 36 30  2  0
 32 37  1  0
 37 38  2  0
 38 39  1  0
 39 40  2  0
 40 41  1  0
 41 42  2  0
 42 37  1  0
 40 43  1  0
 28 44  1  0
  1  2  1  0
  2  3  1  0
 44 45  1  0
  3  4  1  0
 44 46  1  0
  4  5  1  0
 44 47  1  0
  5  6  1  0
 43 48  1  0
  6  1  1  0
 43 49  1  0
  4  7  1  0
 43 50  1  0
  2 51  1  0
  2 52  1  0
  3 53  1  0
  3 54  1  0
  4 55  1  0
  5 56  1  0
  5 57  1  0
  6 58  1  0
  6 59  1  0
  7 60  1  0
  8 61  1  0
  8 62  1  0
  9 63  1  0
  9 64  1  0
 10 65  1  0
 10 66  1  0
 11 67  1  0
 11 68  1  0
 18 69  1  0
 19 70  1  0
 20 71  1  0
 21 72  1  0
 22 73  1  0
 23 74  1  0
 24 75  1  0
 25 76  1  0
 27 77  1  0
 28 78  1  0
 28 79  1  0
 33 80  1  0
 34 81  1  0
 35 82  1  0
 36 83  1  0
 38 84  1  0
 39 85  1  0
 41 86  1  0
 42 87  1  0
M  END
> <Uni-Dock RESULT> 
ENERGY=   -3.929  LOWER_BOUND=    3.255  UPPER_BOUND=   14.672
INTER + INTRA:          -3.929
INTER:                  -3.929
INTRA:                   0.000
UNBOUND:                 0.000

$$$$

     RDKit          3D

 87 92  0  0  0  0  0  0  0  0999 V2000
   29.8055   10.1437   28.5505 N   0  0  0  0  0  0  0  0  0  0  0  0
   28.7107    9.1671   28.6738 C   0  0  0  0  0  0  0  0  0  0  0  0
   28.7635    8.4099   29.9974 C   0  0  0  0  0  0  0  0  0  0  0  0
   30.0498    7.5826   30.1118 C   0  0  0  0  0  0  0  0  0  0  0  0
   31.1953    8.1878   29.2874 C   0  0  0  0  0  0  0  0  0  0  0  0
   31.0583    9.7028   29.1861 C   0  0  0  0  0  0  0  0  0  0  0  0
   30.4178    7.4194   31.5145 N   0  0  0  0  0  0  0  0  0  0  0  0
   30.0232   10.5589   27.1543 C   0  0  0  0  0  0  0  0  0  0  0  0
   28.8263   11.3171   26.5644 C   0  0  0  0  0  0  0  0  0  0  0  0
   29.1065   11.7618   25.1229 C   0  0  0  0  0  0  0  0  0  0  0  0
   27.9404   12.5977   24.5769 C   0  0  0  0  0  0  0  0  0  0  0  0
   28.1217   13.1990   23.1572 C   0  0  0  0  0  0  0  0  0  0  0  0
   29.2634   14.2448   23.0860 C   0  0  0  0  0  0  0  0  0  0  0  0
   28.2303   12.1257   22.0592 C   0  0  0  0  0  0  0  0  0  0  0  0
   27.0847   12.1506   21.2313 C   0  0  0  0  0  0  0  0  0  0  0  0
   26.2040   13.2126   21.6646 C   0  0  0  0  0  0  0  0  0  0  0  0
   26.7851   13.8725   22.7676 C   0  0  0  0  0  0  0  0  0  0  0  0
   24.9857   13.6337   21.1570 C   0  0  0  0  0  0  0  0  0  0  0  0
   24.3519   14.7252   21.7593 C   0  0  0  0  0  0  0  0  0  0  0  0
   24.9380   15.3849   22.8518 C   0  0  0  0  0  0  0  0  0  0  0  0
   26.1645   14.9622   23.3657 C   0  0  0  0  0  0  0  0  0  0  0  0
   29.2755   11.2485   21.7989 C   0  0  0  0  0  0  0  0  0  0  0  0
   29.1496   10.3609   20.7286 C   0  0  0  0  0  0  0  0  0  0  0  0
   27.9998   10.3663   19.9248 C   0  0  0  0  0  0  0  0  0  0  0  0
   26.9611   11.2684   20.1692 C   0  0  0  0  0  0  0  0  0  0  0  0
   29.8606   14.6597   24.0784 O   0  0  0  0  0  0  0  0  0  0  0  0
   29.5617   14.7237   21.8217 N   0  0  0  0  0  0  0  0  0  0  0  0
   30.4849   15.8438   21.6445 C   0  0  0  0  0  0  0  0  0  0  0  0
   31.2846    6.4321   31.9353 C   0  0  0  0  0  0  0  0  0  0  0  0
   31.6022    6.4708   33.3844 C   0  0  0  0  0  0  0  0  0  0  0  0
   31.7949    5.5999   31.1979 O   0  0  0  0  0  0  0  0  0  0  0  0
   31.3584    5.3667   34.2238 C   0  0  0  0  0  0  0  0  0  0  0  0
   31.6793    5.4966   35.5887 C   0  0  0  0  0  0  0  0  0  0  0  0
   32.2269    6.6776   36.0976 C   0  0  0  0  0  0  0  0  0  0  0  0
   32.4671    7.7565   35.2518 C   0  0  0  0  0  0  0  0  0  0  0  0
   32.1570    7.6563   33.8969 C   0  0  0  0  0  0  0  0  0  0  0  0
   30.7652    4.1077   33.7535 C   0  0  0  0  0  0  0  0  0  0  0  0
   29.4104    3.8243   33.9830 C   0  0  0  0  0  0  0  0  0  0  0  0
   28.8477    2.6188   33.5508 C   0  0  0  0  0  0  0  0  0  0  0  0
   29.6295    1.6639   32.8846 C   0  0  0  0  0  0  0  0  0  0  0  0
   30.9815    1.9471   32.6477 C   0  0  0  0  0  0  0  0  0  0  0  0
   31.5423    3.1517   33.0840 C   0  0  0  0  0  0  0  0  0  0  0  0
   29.0121    0.3756   32.3985 C   0  0  0  0  0  0  0  0  0  0  0  0
   29.8688   17.2310   21.8480 C   0  0  0  0  0  0  0  0  0  0  0  0
   30.7932   18.1961   21.6330 F   0  0  0  0  0  0  0  0  0  0  0  0
   29.3685   17.4098   23.0870 F   0  0  0  0  0  0  0  0  0  0  0  0
   28.8626   17.4368   20.9637 F   0  0  0  0  0  0  0  0  0  0  0  0
   28.0644   -0.1130   33.2485 F   0  0  0  0  0  0  0  0  0  0  0  0
   29.9168   -0.6318   32.2394 F   0  0  0  0  0  0  0  0  0  0  0  0
   28.3934    0.5162   31.1936 F   0  0  0  0  0  0  0  0  0  0  0  0
   27.7500    9.6912   28.6165 H   0  0  0  0  0  0  0  0  0  0  0  0
   28.7345    8.4391   27.8520 H   0  0  0  0  0  0  0  0  0  0  0  0
   27.8937    7.7478   30.0882 H   0  0  0  0  0  0  0  0  0  0  0  0
   28.6826    9.1298   30.8230 H   0  0  0  0  0  0  0  0  0  0  0  0
   29.8609    6.5742   29.7214 H   0  0  0  0  0  0  0  0  0  0  0  0
   32.1740    7.9316   29.7082 H   0  0  0  0  0  0  0  0  0  0  0  0
   31.1746    7.7635   28.2751 H   0  0  0  0  0  0  0  0  0  0  0  0
   31.0830   10.1260   30.1986 H   0  0  0  0  0  0  0  0  0  0  0  0
   31.9386   10.1177   28.6794 H   0  0  0  0  0  0  0  0  0  0  0  0
   30.0823    8.0950   32.1896 H   0  0  0  0  0  0  0  0  0  0  0  0
   30.2699    9.6920   26.5281 H   0  0  0  0  0  0  0  0  0  0  0  0
   30.8855   11.2372   27.1112 H   0  0  0  0  0  0  0  0  0  0  0  0
   27.9295   10.6868   26.5652 H   0  0  0  0  0  0  0  0  0  0  0  0
   28.6107   12.1949   27.1862 H   0  0  0  0  0  0  0  0  0  0  0  0
   30.0391   12.3348   25.0909 H   0  0  0  0  0  0  0  0  0  0  0  0
   29.2489   10.8642   24.5136 H   0  0  0  0  0  0  0  0  0  0  0  0
   27.7524   13.4159   25.2861 H   0  0  0  0  0  0  0  0  0  0  0  0
   27.0375   11.9701   24.5994 H   0  0  0  0  0  0  0  0  0  0  0  0
   24.5251   13.1360   20.3101 H   0  0  0  0  0  0  0  0  0  0  0  0
   23.3940   15.0701   21.3766 H   0  0  0  0  0  0  0  0  0  0  0  0
   24.4291   16.2339   23.3032 H   0  0  0  0  0  0  0  0  0  0  0  0
   26.6141   15.4747   24.2119 H   0  0  0  0  0  0  0  0  0  0  0  0
   30.1796   11.2483   22.4004 H   0  0  0  0  0  0  0  0  0  0  0  0
   29.9526    9.6593   20.5117 H   0  0  0  0  0  0  0  0  0  0  0  0
   27.9218    9.6664   19.0958 H   0  0  0  0  0  0  0  0  0  0  0  0
   26.0853   11.2749   19.5286 H   0  0  0  0  0  0  0  0  0  0  0  0
   28.9080   14.5157   21.0721 H   0  0  0  0  0  0  0  0  0  0  0  0
   31.3283   15.7174   22.3330 H   0  0  0  0  0  0  0  0  0  0  0  0
   30.8740   15.7655   20.6235 H   0  0  0  0  0  0  0  0  0  0  0  0
   31.5038    4.6627   36.2676 H   0  0  0  0  0  0  0  0  0  0  0  0
   32.4695    6.7498   37.1554 H   0  0  0  0  0  0  0  0  0  0  0  0
   32.9017    8.6718   35.6465 H   0  0  0  0  0  0  0  0  0  0  0  0
   32.3650    8.4960   33.2374 H   0  0  0  0  0  0  0  0  0  0  0  0
   28.7809    4.5481   34.4975 H   0  0  0  0  0  0  0  0  0  0  0  0
   27.7921    2.4261   33.7363 H   0  0  0  0  0  0  0  0  0  0  0  0
   31.6098    1.2343   32.1152 H   0  0  0  0  0  0  0  0  0  0  0  0
   32.5921    3.3543   32.8757 H   0  0  0  0  0  0  0  0  0  0  0  0
  1  8  1  0
  8  9  1  0
  9 10  1  0
 10 11  1  0
 11 12  1  0
 12 13  1  0
 12 14  1  0
 14 15  2  0
 15 16  1  0
 16 17  1  0
 17 12  1  0
 16 18  2  0
 18 19  1  0
 19 20  2  0
 20 21  1  0
 21 17  2  0
 14 22  1  0
 22 23  2  0
 23 24  1  0
 24 25  2  0
 25 15  1  0
 13 26  2  0
 13 27  1  0
 27 28  1  0
  7 29  1  0
 29 30  1  0
 29 31  2  0
 30 32  1  0
 32 33  2  0
 33 34  1  0
 34 35  2  0
 35 36  1  0
 36 30  2  0
 32 37  1  0
 37 38  2  0
 38 39  1  0
 39 40  2  0
 40 41  1  0
 41 42  2  0
 42 37  1  0
 40 43  1  0
 28 44  1  0
  1  2  1  0
  2  3  1  0
 44 45  1  0
  3  4  1  0
 44 46  1  0
  4  5  1  0
 44 47  1  0
  5  6  1  0
 43 48  1  0
  6  1  1  0
 43 49  1  0
  4  7  1  0
 43 50  1  0
  2 51  1  0
  2 52  1  0
  3 53  1  0
  3 54  1  0
  4 55  1  0
  5 56  1  0
  5 57  1  0
  6 58  1  0
  6 59  1  0
  7 60  1  0
  8 61  1  0
  8 62  1  0
  9 63  1  0
  9 64  1  0
 10 65  1  0
 10 66  1  0
 11 67  1  0
 11 68  1  0
 18 69  1  0
 19 70  1  0
 20 71  1  0
 21 72  1  0
 22 73  1  0
 23 74  1  0
 24 75  1  0
 25 76  1  0
 27 77  1  0
 28 78  1  0
 28 79  1  0
 33 80  1  0
 34 81  1  0
 35 82  1  0
 36 83  1  0
 38 84  1  0
 39 85  1  0
 41 86  1  0
 42 87  1  0
M  END
> <Uni-Dock RESULT> 
ENERGY=   -3.799  LOWER_BOUND=    4.600  UPPER_BOUND=    6.935
INTER + INTRA:          -3.799
INTER:                  -3.799
INTRA:                   0.000
UNBOUND:                 0.000

$$$$

     RDKit          3D

 87 92  0  0  0  0  0  0  0  0999 V2000
   28.9265   12.1925   25.4617 N   0  0  0  0  0  0  0  0  0  0  0  0
   27.5371   11.7386   25.2852 C   0  0  0  0  0  0  0  0  0  0  0  0
   26.8068   11.5951   26.6172 C   0  0  0  0  0  0  0  0  0  0  0  0
   27.4658   10.5269   27.4985 C   0  0  0  0  0  0  0  0  0  0  0  0
   28.9599   10.3655   27.1825 C   0  0  0  0  0  0  0  0  0  0  0  0
   29.5609   11.6756   26.6857 C   0  0  0  0  0  0  0  0  0  0  0  0
   27.2387   10.8298   28.9079 N   0  0  0  0  0  0  0  0  0  0  0  0
   29.7515   11.9278   24.2707 C   0  0  0  0  0  0  0  0  0  0  0  0
   29.2914   12.7193   23.0389 C   0  0  0  0  0  0  0  0  0  0  0  0
   30.1965   12.4427   21.8312 C   0  0  0  0  0  0  0  0  0  0  0  0
   29.7826   13.3093   20.6336 C   0  0  0  0  0  0  0  0  0  0  0  0
   30.6687   13.2072   19.3631 C   0  0  0  0  0  0  0  0  0  0  0  0
   32.1111   13.7271   19.5899 C   0  0  0  0  0  0  0  0  0  0  0  0
   30.6357   11.8100   18.7178 C   0  0  0  0  0  0  0  0  0  0  0  0
   29.9662   11.8580   17.4736 C   0  0  0  0  0  0  0  0  0  0  0  0
   29.5704   13.2207   17.1953 C   0  0  0  0  0  0  0  0  0  0  0  0
   29.9888   14.0487   18.2578 C   0  0  0  0  0  0  0  0  0  0  0  0
   28.9139   13.7607   16.1014 C   0  0  0  0  0  0  0  0  0  0  0  0
   28.6811   15.1394   16.0751 C   0  0  0  0  0  0  0  0  0  0  0  0
   29.1070   15.9616   17.1310 C   0  0  0  0  0  0  0  0  0  0  0  0
   29.7676   15.4201   18.2345 C   0  0  0  0  0  0  0  0  0  0  0  0
   31.1947   10.6246   19.1781 C   0  0  0  0  0  0  0  0  0  0  0  0
   31.0413    9.4716   18.4058 C   0  0  0  0  0  0  0  0  0  0  0  0
   30.3517    9.5136   17.1849 C   0  0  0  0  0  0  0  0  0  0  0  0
   29.8146   10.7122   16.7082 C   0  0  0  0  0  0  0  0  0  0  0  0
   32.4689   14.2946   20.6211 O   0  0  0  0  0  0  0  0  0  0  0  0
   32.9885   13.5448   18.5345 N   0  0  0  0  0  0  0  0  0  0  0  0
   34.3175   14.1544   18.5527 C   0  0  0  0  0  0  0  0  0  0  0  0
   27.3769    9.8757   29.8947 C   0  0  0  0  0  0  0  0  0  0  0  0
   27.1835   10.3870   31.2743 C   0  0  0  0  0  0  0  0  0  0  0  0
   27.6680    8.7054   29.6888 O   0  0  0  0  0  0  0  0  0  0  0  0
   26.2093    9.8435   32.1337 C   0  0  0  0  0  0  0  0  0  0  0  0
   26.0873   10.3991   33.4219 C   0  0  0  0  0  0  0  0  0  0  0  0
   26.9069   11.4510   33.8406 C   0  0  0  0  0  0  0  0  0  0  0  0
   27.8690   11.9712   32.9798 C   0  0  0  0  0  0  0  0  0  0  0  0
   28.0100   11.4420   31.6984 C   0  0  0  0  0  0  0  0  0  0  0  0
   25.3040    8.7539   31.7449 C   0  0  0  0  0  0  0  0  0  0  0  0
   23.9758    9.0214   31.3808 C   0  0  0  0  0  0  0  0  0  0  0  0
   23.1074    7.9835   31.0265 C   0  0  0  0  0  0  0  0  0  0  0  0
   23.5456    6.6513   31.0350 C   0  0  0  0  0  0  0  0  0  0  0  0
   24.8739    6.3816   31.3916 C   0  0  0  0  0  0  0  0  0  0  0  0
   25.7388    7.4209   31.7487 C   0  0  0  0  0  0  0  0  0  0  0  0
   22.6122    5.5375   30.6282 C   0  0  0  0  0  0  0  0  0  0  0  0
   34.3631   15.6243   18.1251 C   0  0  0  0  0  0  0  0  0  0  0  0
   35.6358   16.0848   18.1469 F   0  0  0  0  0  0  0  0  0  0  0  0
   33.6220   16.4270   18.9150 F   0  0  0  0  0  0  0  0  0  0  0  0
   33.9094   15.7627   16.8557 F   0  0  0  0  0  0  0  0  0  0  0  0
   21.3265    5.7483   31.0308 F   0  0  0  0  0  0  0  0  0  0  0  0
   22.9627    4.3236   31.1401 F   0  0  0  0  0  0  0  0  0  0  0  0
   22.5561    5.3717   29.2777 F   0  0  0  0  0  0  0  0  0  0  0  0
   26.9935   12.4665   24.6727 H   0  0  0  0  0  0  0  0  0  0  0  0
   27.4986   10.7757   24.7585 H   0  0  0  0  0  0  0  0  0  0  0  0
   25.7566   11.3298   26.4448 H   0  0  0  0  0  0  0  0  0  0  0  0
   26.7931   12.5702   27.1226 H   0  0  0  0  0  0  0  0  0  0  0  0
   26.9831    9.5598   27.3074 H   0  0  0  0  0  0  0  0  0  0  0  0
   29.5199   10.0078   28.0537 H   0  0  0  0  0  0  0  0  0  0  0  0
   29.0834    9.6029   26.4025 H   0  0  0  0  0  0  0  0  0  0  0  0
   29.4401   12.4362   27.4680 H   0  0  0  0  0  0  0  0  0  0  0  0
   30.6449   11.5588   26.5630 H   0  0  0  0  0  0  0  0  0  0  0  0
   27.0429   11.7858   29.1769 H   0  0  0  0  0  0  0  0  0  0  0  0
   29.7716   10.8537   24.0463 H   0  0  0  0  0  0  0  0  0  0  0  0
   30.7873   12.2283   24.4767 H   0  0  0  0  0  0  0  0  0  0  0  0
   28.2625   12.4541   22.7698 H   0  0  0  0  0  0  0  0  0  0  0  0
   29.3036   13.7915   23.2713 H   0  0  0  0  0  0  0  0  0  0  0  0
   31.2396   12.6349   22.1033 H   0  0  0  0  0  0  0  0  0  0  0  0
   30.1105   11.3812   21.5802 H   0  0  0  0  0  0  0  0  0  0  0  0
   29.7621   14.3561   20.9673 H   0  0  0  0  0  0  0  0  0  0  0  0
   28.7426   13.0568   20.3795 H   0  0  0  0  0  0  0  0  0  0  0  0
   28.5847   13.1371   15.2768 H   0  0  0  0  0  0  0  0  0  0  0  0
   28.1657   15.5825   15.2259 H   0  0  0  0  0  0  0  0  0  0  0  0
   28.9183   17.0321   17.0886 H   0  0  0  0  0  0  0  0  0  0  0  0
   30.0945   16.0596   19.0500 H   0  0  0  0  0  0  0  0  0  0  0  0
   31.7487   10.5830   20.1111 H   0  0  0  0  0  0  0  0  0  0  0  0
   31.4638    8.5302   18.7513 H   0  0  0  0  0  0  0  0  0  0  0  0
   30.2435    8.6038   16.5986 H   0  0  0  0  0  0  0  0  0  0  0  0
   29.2996   10.7350   15.7533 H   0  0  0  0  0  0  0  0  0  0  0  0
   32.5973   13.2700   17.6379 H   0  0  0  0  0  0  0  0  0  0  0  0
   34.7359   14.0573   19.5611 H   0  0  0  0  0  0  0  0  0  0  0  0
   34.9400   13.5598   17.8753 H   0  0  0  0  0  0  0  0  0  0  0  0
   25.3439   10.0038   34.1135 H   0  0  0  0  0  0  0  0  0  0  0  0
   26.7945   11.8588   34.8426 H   0  0  0  0  0  0  0  0  0  0  0  0
   28.5125   12.7835   33.3093 H   0  0  0  0  0  0  0  0  0  0  0  0
   28.7766   11.8398   31.0371 H   0  0  0  0  0  0  0  0  0  0  0  0
   23.6098   10.0464   31.3654 H   0  0  0  0  0  0  0  0  0  0  0  0
   22.0829    8.2189   30.7421 H   0  0  0  0  0  0  0  0  0  0  0  0
   25.2496    5.3592   31.3884 H   0  0  0  0  0  0  0  0  0  0  0  0
   26.7704    7.1868   32.0086 H   0  0  0  0  0  0  0  0  0  0  0  0
  1  8  1  0
  8  9  1  0
  9 10  1  0
 10 11  1  0
 11 12  1  0
 12 13  1  0
 12 14  1  0
 14 15  2  0
 15 16  1  0
 16 17  1  0
 17 12  1  0
 16 18  2  0
 18 19  1  0
 19 20  2  0
 20 21  1  0
 21 17  2  0
 14 22  1  0
 22 23  2  0
 23 24  1  0
 24 25  2  0
 25 15  1  0
 13 26  2  0
 13 27  1  0
 27 28  1  0
  7 29  1  0
 29 30  1  0
 29 31  2  0
 30 32  1  0
 32 33  2  0
 33 34  1  0
 34 35  2  0
 35 36  1  0
 36 30  2  0
 32 37  1  0
 37 38  2  0
 38 39  1  0
 39 40  2  0
 40 41  1  0
 41 42  2  0
 42 37  1  0
 40 43  1  0
 28 44  1  0
  1  2  1  0
  2  3  1  0
 44 45  1  0
  3  4  1  0
 44 46  1  0
  4  5  1  0
 44 47  1  0
  5  6  1  0
 43 48  1  0
  6  1  1  0
 43 49  1  0
  4  7  1  0
 43 50  1  0
  2 51  1  0
  2 52  1  0
  3 53  1  0
  3 54  1  0
  4 55  1  0
  5 56  1  0
  5 57  1  0
  6 58  1  0
  6 59  1  0
  7 60  1  0
  8 61  1  0
  8 62  1  0
  9 63  1  0
  9 64  1  0
 10 65  1  0
 10 66  1  0
 11 67  1  0
 11 68  1  0
 18 69  1  0
 19 70  1  0
 20 71  1  0
 21 72  1  0
 22 73  1  0
 23 74  1  0
 24 75  1  0
 25 76  1  0
 27 77  1  0
 28 78  1  0
 28 79  1  0
 33 80  1  0
 34 81  1  0
 35 82  1  0
 36 83  1  0
 38 84  1  0
 39 85  1  0
 41 86  1  0
 42 87  1  0
M  END
> <Uni-Dock RESULT> 
ENERGY=   -3.779  LOWER_BOUND=    6.709  UPPER_BOUND=    8.834
INTER + INTRA:          -3.779
INTER:                  -3.779
INTRA:                   0.000
UNBOUND:                 0.000

$$$$

     RDKit          3D

 87 92  0  0  0  0  0  0  0  0999 V2000
   28.8473   10.7385   28.3422 N   0  0  0  0  0  0  0  0  0  0  0  0
   27.7482    9.7703   28.4914 C   0  0  0  0  0  0  0  0  0  0  0  0
   27.7194    9.1448   29.8828 C   0  0  0  0  0  0  0  0  0  0  0  0
   28.9972    8.3420   30.1563 C   0  0  0  0  0  0  0  0  0  0  0  0
   30.1912    8.8733   29.3498 C   0  0  0  0  0  0  0  0  0  0  0  0
   30.0586   10.3704   29.0939 C   0  0  0  0  0  0  0  0  0  0  0  0
   29.2772    8.3177   31.5883 N   0  0  0  0  0  0  0  0  0  0  0  0
   29.1511   11.0185   26.9286 C   0  0  0  0  0  0  0  0  0  0  0  0
   27.9923   11.7073   26.1949 C   0  0  0  0  0  0  0  0  0  0  0  0
   28.3614   12.0129   24.7373 C   0  0  0  0  0  0  0  0  0  0  0  0
   27.2304   12.7835   24.0417 C   0  0  0  0  0  0  0  0  0  0  0  0
   27.4991   13.2462   22.5845 C   0  0  0  0  0  0  0  0  0  0  0  0
   28.6416   14.2887   22.4832 C   0  0  0  0  0  0  0  0  0  0  0  0
   27.6776   12.0727   21.6044 C   0  0  0  0  0  0  0  0  0  0  0  0
   26.5859   12.0090   20.7085 C   0  0  0  0  0  0  0  0  0  0  0  0
   25.6784   13.1013   20.9816 C   0  0  0  0  0  0  0  0  0  0  0  0
   26.1885   13.8690   22.0493 C   0  0  0  0  0  0  0  0  0  0  0  0
   24.4935   13.4623   20.3610 C   0  0  0  0  0  0  0  0  0  0  0  0
   23.8218   14.6022   20.8144 C   0  0  0  0  0  0  0  0  0  0  0  0
   24.3376   15.3686   21.8720 C   0  0  0  0  0  0  0  0  0  0  0  0
   25.5303   15.0066   22.4995 C   0  0  0  0  0  0  0  0  0  0  0  0
   28.7382   11.1823   21.4955 C   0  0  0  0  0  0  0  0  0  0  0  0
   28.6807   10.1946   20.5105 C   0  0  0  0  0  0  0  0  0  0  0  0
   27.5833   10.1138   19.6402 C   0  0  0  0  0  0  0  0  0  0  0  0
   26.5301   11.0275   19.7312 C   0  0  0  0  0  0  0  0  0  0  0  0
   29.1751   14.8019   23.4659 O   0  0  0  0  0  0  0  0  0  0  0  0
   29.0175   14.6455   21.1994 N   0  0  0  0  0  0  0  0  0  0  0  0
   29.9484   15.7500   20.9722 C   0  0  0  0  0  0  0  0  0  0  0  0
   30.1175    7.3821   32.1557 C   0  0  0  0  0  0  0  0  0  0  0  0
   30.3439    7.5630   33.6111 C   0  0  0  0  0  0  0  0  0  0  0  0
   30.6740    6.4865   31.5353 O   0  0  0  0  0  0  0  0  0  0  0  0
   30.0498    6.5432   34.5367 C   0  0  0  0  0  0  0  0  0  0  0  0
   30.2846    6.8068   35.8999 C   0  0  0  0  0  0  0  0  0  0  0  0
   30.7977    8.0354   36.3250 C   0  0  0  0  0  0  0  0  0  0  0  0
   31.0888    9.0293   35.3952 C   0  0  0  0  0  0  0  0  0  0  0  0
   30.8640    8.7965   34.0398 C   0  0  0  0  0  0  0  0  0  0  0  0
   29.4888    5.2404   34.1547 C   0  0  0  0  0  0  0  0  0  0  0  0
   28.1227    4.9704   34.3260 C   0  0  0  0  0  0  0  0  0  0  0  0
   27.5898    3.7246   33.9786 C   0  0  0  0  0  0  0  0  0  0  0  0
   28.4130    2.7157   33.4577 C   0  0  0  0  0  0  0  0  0  0  0  0
   29.7768    2.9848   33.2789 C   0  0  0  0  0  0  0  0  0  0  0  0
   30.3075    4.2300   33.6303 C   0  0  0  0  0  0  0  0  0  0  0  0
   27.8290    1.3819   33.0613 C   0  0  0  0  0  0  0  0  0  0  0  0
   29.3189   17.1458   21.0018 C   0  0  0  0  0  0  0  0  0  0  0  0
   30.2536   18.0925   20.7521 F   0  0  0  0  0  0  0  0  0  0  0  0
   28.7419   17.4397   22.1843 F   0  0  0  0  0  0  0  0  0  0  0  0
   28.3696   17.2578   20.0411 F   0  0  0  0  0  0  0  0  0  0  0  0
   26.8307    0.9706   33.8943 F   0  0  0  0  0  0  0  0  0  0  0  0
   28.7432    0.3707   33.0569 F   0  0  0  0  0  0  0  0  0  0  0  0
   27.2864    1.4010   31.8124 F   0  0  0  0  0  0  0  0  0  0  0  0
   26.7924   10.2792   28.3242 H   0  0  0  0  0  0  0  0  0  0  0  0
   27.8244    8.9665   27.7470 H   0  0  0  0  0  0  0  0  0  0  0  0
   26.8466    8.4881   29.9831 H   0  0  0  0  0  0  0  0  0  0  0  0
   27.5862    9.9404   30.6282 H   0  0  0  0  0  0  0  0  0  0  0  0
   28.8345    7.2993   29.8544 H   0  0  0  0  0  0  0  0  0  0  0  0
   31.1420    8.6662   29.8533 H   0  0  0  0  0  0  0  0  0  0  0  0
   30.2343    8.3531   28.3840 H   0  0  0  0  0  0  0  0  0  0  0  0
   30.0194   10.8895   30.0603 H   0  0  0  0  0  0  0  0  0  0  0  0
   30.9682   10.7410   28.6050 H   0  0  0  0  0  0  0  0  0  0  0  0
   28.8993    9.0529   32.1727 H   0  0  0  0  0  0  0  0  0  0  0  0
   29.4376   10.0971   26.4057 H   0  0  0  0  0  0  0  0  0  0  0  0
   30.0135   11.6959   26.8735 H   0  0  0  0  0  0  0  0  0  0  0  0
   27.0981   11.0734   26.2012 H   0  0  0  0  0  0  0  0  0  0  0  0
   27.7371   12.6395   26.7142 H   0  0  0  0  0  0  0  0  0  0  0  0
   29.2933   12.5870   24.7078 H   0  0  0  0  0  0  0  0  0  0  0  0
   28.5428   11.0617   24.2278 H   0  0  0  0  0  0  0  0  0  0  0  0
   26.9974   13.6648   24.6553 H   0  0  0  0  0  0  0  0  0  0  0  0
   26.3288   12.1542   24.0688 H   0  0  0  0  0  0  0  0  0  0  0  0
   24.0874   12.8818   19.5393 H   0  0  0  0  0  0  0  0  0  0  0  0
   22.8892   14.9014   20.3414 H   0  0  0  0  0  0  0  0  0  0  0  0
   23.8003   16.2534   22.2067 H   0  0  0  0  0  0  0  0  0  0  0  0
   25.9254   15.6018   23.3183 H   0  0  0  0  0  0  0  0  0  0  0  0
   29.6030   11.2469   22.1492 H   0  0  0  0  0  0  0  0  0  0  0  0
   29.4966    9.4813   20.4127 H   0  0  0  0  0  0  0  0  0  0  0  0
   27.5581    9.3365   18.8797 H   0  0  0  0  0  0  0  0  0  0  0  0
   25.6959   10.9656   19.0400 H   0  0  0  0  0  0  0  0  0  0  0  0
   28.4122   14.3612   20.4344 H   0  0  0  0  0  0  0  0  0  0  0  0
   30.7474   15.6970   21.7206 H   0  0  0  0  0  0  0  0  0  0  0  0
   30.4006   15.5765   19.9897 H   0  0  0  0  0  0  0  0  0  0  0  0
   30.0682    6.0410   36.6441 H   0  0  0  0  0  0  0  0  0  0  0  0
   30.9737    8.2112   37.3838 H   0  0  0  0  0  0  0  0  0  0  0  0
   31.4965    9.9817   35.7256 H   0  0  0  0  0  0  0  0  0  0  0  0
   31.1116    9.5701   33.3162 H   0  0  0  0  0  0  0  0  0  0  0  0
   27.4613    5.7358   34.7280 H   0  0  0  0  0  0  0  0  0  0  0  0
   26.5249    3.5429   34.1161 H   0  0  0  0  0  0  0  0  0  0  0  0
   30.4381    2.2286   32.8578 H   0  0  0  0  0  0  0  0  0  0  0  0
   31.3680    4.4193   33.4689 H   0  0  0  0  0  0  0  0  0  0  0  0
  1  8  1  0
  8  9  1  0
  9 10  1  0
 10 11  1  0
 11 12  1  0
 12 13  1  0
 12 14  1  0
 14 15  2  0
 15 16  1  0
 16 17  1  0
 17 12  1  0
 16 18  2  0
 18 19  1  0
 19 20  2  0
 20 21  1  0
 21 17  2  0
 14 22  1  0
 22 23  2  0
 23 24  1  0
 24 25  2  0
 25 15  1  0
 13 26  2  0
 13 27  1  0
 27 28  1  0
  7 29  1  0
 29 30  1  0
 29 31  2  0
 30 32  1  0
 32 33  2  0
 33 34  1  0
 34 35  2  0
 35 36  1  0
 36 30  2  0
 32 37  1  0
 37 38  2  0
 38 39  1  0
 39 40  2  0
 40 41  1  0
 41 42  2  0
 42 37  1  0
 40 43  1  0
 28 44  1  0
  1  2  1  0
  2  3  1  0
 44 45  1  0
  3  4  1  0
 44 46  1  0
  4  5  1  0
 44 47  1  0
  5  6  1  0
 43 48  1  0
  6  1  1  0
 43 49  1  0
  4  7  1  0
 43 50  1  0
  2 51  1  0
  2 52  1  0
  3 53  1  0
  3 54  1  0
  4 55  1  0
  5 56  1  0
  5 57  1  0
  6 58  1  0
  6 59  1  0
  7 60  1  0
  8 61  1  0
  8 62  1  0
  9 63  1  0
  9 64  1  0
 10 65  1  0
 10 66  1  0
 11 67  1  0
 11 68  1  0
 18 69  1  0
 19 70  1  0
 20 71  1  0
 21 72  1  0
 22 73  1  0
 23 74  1  0
 24 75  1  0
 25 76  1  0
 27 77  1  0
 28 78  1  0
 28 79  1  0
 33 80  1  0
 34 81  1  0
 35 82  1  0
 36 83  1  0
 38 84  1  0
 39 85  1  0
 41 86  1  0
 42 87  1  0
M  END
> <Uni-Dock RESULT> 
ENERGY=   -3.724  LOWER_BOUND=    5.173  UPPER_BOUND=    7.466
INTER + INTRA:          -3.724
INTER:                  -3.724
INTRA:                   0.000
UNBOUND:                 0.000

$$$$

     RDKit          3D

 87 92  0  0  0  0  0  0  0  0999 V2000
   28.2146   11.2840   27.9743 N   0  0  0  0  0  0  0  0  0  0  0  0
   27.6807   10.7615   26.7056 C   0  0  0  0  0  0  0  0  0  0  0  0
   27.5743   11.8460   25.6378 C   0  0  0  0  0  0  0  0  0  0  0  0
   26.5922   12.9455   26.0602 C   0  0  0  0  0  0  0  0  0  0  0  0
   26.4904   13.0668   27.5877 C   0  0  0  0  0  0  0  0  0  0  0  0
   27.8000   12.6679   28.2588 C   0  0  0  0  0  0  0  0  0  0  0  0
   26.9610   14.2132   25.4384 N   0  0  0  0  0  0  0  0  0  0  0  0
   27.9266   10.3885   29.1075 C   0  0  0  0  0  0  0  0  0  0  0  0
   28.6237    9.0268   28.9831 C   0  0  0  0  0  0  0  0  0  0  0  0
   28.3271    8.1381   30.1983 C   0  0  0  0  0  0  0  0  0  0  0  0
   29.1031    6.8168   30.1061 C   0  0  0  0  0  0  0  0  0  0  0  0
   28.9761    5.8509   31.3147 C   0  0  0  0  0  0  0  0  0  0  0  0
   29.5813    6.4320   32.6180 C   0  0  0  0  0  0  0  0  0  0  0  0
   27.5453    5.3180   31.5106 C   0  0  0  0  0  0  0  0  0  0  0  0
   27.4894    3.9369   31.2140 C   0  0  0  0  0  0  0  0  0  0  0  0
   28.8123    3.4682   30.8657 C   0  0  0  0  0  0  0  0  0  0  0  0
   29.7187    4.5463   30.9424 C   0  0  0  0  0  0  0  0  0  0  0  0
   29.2560    2.2014   30.5229 C   0  0  0  0  0  0  0  0  0  0  0  0
   30.6174    2.0183   30.2600 C   0  0  0  0  0  0  0  0  0  0  0  0
   31.5179    3.0925   30.3461 C   0  0  0  0  0  0  0  0  0  0  0  0
   31.0734    4.3697   30.6902 C   0  0  0  0  0  0  0  0  0  0  0  0
   26.4177    5.9942   31.9586 C   0  0  0  0  0  0  0  0  0  0  0  0
   25.2171    5.2897   32.0662 C   0  0  0  0  0  0  0  0  0  0  0  0
   25.1555    3.9258   31.7440 C   0  0  0  0  0  0  0  0  0  0  0  0
   26.2965    3.2390   31.3210 C   0  0  0  0  0  0  0  0  0  0  0  0
   30.2230    7.4810   32.6541 O   0  0  0  0  0  0  0  0  0  0  0  0
   29.3859    5.6753   33.7608 N   0  0  0  0  0  0  0  0  0  0  0  0
   30.0631    6.0189   35.0104 C   0  0  0  0  0  0  0  0  0  0  0  0
   26.0717   15.2621   25.3278 C   0  0  0  0  0  0  0  0  0  0  0  0
   26.6485   16.4965   24.7396 C   0  0  0  0  0  0  0  0  0  0  0  0
   24.9083   15.2246   25.7043 O   0  0  0  0  0  0  0  0  0  0  0  0
   26.1044   17.0877   23.5832 C   0  0  0  0  0  0  0  0  0  0  0  0
   26.7239   18.2511   23.0876 C   0  0  0  0  0  0  0  0  0  0  0  0
   27.8382   18.8079   23.7215 C   0  0  0  0  0  0  0  0  0  0  0  0
   28.3584   18.2134   24.8675 C   0  0  0  0  0  0  0  0  0  0  0  0
   27.7666   17.0600   25.3786 C   0  0  0  0  0  0  0  0  0  0  0  0
   24.9497   16.5386   22.8599 C   0  0  0  0  0  0  0  0  0  0  0  0
   25.1278   15.8040   21.6780 C   0  0  0  0  0  0  0  0  0  0  0  0
   24.0285   15.2946   20.9787 C   0  0  0  0  0  0  0  0  0  0  0  0
   22.7231   15.5144   21.4420 C   0  0  0  0  0  0  0  0  0  0  0  0
   22.5424   16.2418   22.6263 C   0  0  0  0  0  0  0  0  0  0  0  0
   23.6430   16.7528   23.3213 C   0  0  0  0  0  0  0  0  0  0  0  0
   21.5419   14.9418   20.6977 C   0  0  0  0  0  0  0  0  0  0  0  0
   31.5073    5.5220   35.1238 C   0  0  0  0  0  0  0  0  0  0  0  0
   32.0331    5.8636   36.3234 F   0  0  0  0  0  0  0  0  0  0  0  0
   32.3136    6.0198   34.1648 F   0  0  0  0  0  0  0  0  0  0  0  0
   31.5512    4.1702   35.0382 F   0  0  0  0  0  0  0  0  0  0  0  0
   21.7084   14.9579   19.3443 F   0  0  0  0  0  0  0  0  0  0  0  0
   20.3780   15.6118   20.9322 F   0  0  0  0  0  0  0  0  0  0  0  0
   21.2984   13.6429   21.0265 F   0  0  0  0  0  0  0  0  0  0  0  0
   28.3445    9.9745   26.3304 H   0  0  0  0  0  0  0  0  0  0  0  0
   26.6893   10.3112   26.8483 H   0  0  0  0  0  0  0  0  0  0  0  0
   27.2462   11.4084   24.6870 H   0  0  0  0  0  0  0  0  0  0  0  0
   28.5740   12.2606   25.4504 H   0  0  0  0  0  0  0  0  0  0  0  0
   25.5923   12.6945   25.6831 H   0  0  0  0  0  0  0  0  0  0  0  0
   26.2111   14.0811   27.8939 H   0  0  0  0  0  0  0  0  0  0  0  0
   25.6929   12.4049   27.9498 H   0  0  0  0  0  0  0  0  0  0  0  0
   28.5957   13.3328   27.8986 H   0  0  0  0  0  0  0  0  0  0  0  0
   27.7324   12.8580   29.3372 H   0  0  0  0  0  0  0  0  0  0  0  0
   27.9192   14.3521   25.1430 H   0  0  0  0  0  0  0  0  0  0  0  0
   26.8442   10.2517   29.2258 H   0  0  0  0  0  0  0  0  0  0  0  0
   28.2911   10.8520   30.0337 H   0  0  0  0  0  0  0  0  0  0  0  0
   28.2913    8.5022   28.0799 H   0  0  0  0  0  0  0  0  0  0  0  0
   29.7063    9.1802   28.8935 H   0  0  0  0  0  0  0  0  0  0  0  0
   28.5875    8.6744   31.1168 H   0  0  0  0  0  0  0  0  0  0  0  0
   27.2502    7.9457   30.2219 H   0  0  0  0  0  0  0  0  0  0  0  0
   30.1645    7.0601   29.9579 H   0  0  0  0  0  0  0  0  0  0  0  0
   28.7838    6.3028   29.1877 H   0  0  0  0  0  0  0  0  0  0  0  0
   28.5714    1.3622   30.4584 H   0  0  0  0  0  0  0  0  0  0  0  0
   30.9853    1.0316   29.9877 H   0  0  0  0  0  0  0  0  0  0  0  0
   32.5733    2.9270   30.1405 H   0  0  0  0  0  0  0  0  0  0  0  0
   31.7733    5.1985   30.7545 H   0  0  0  0  0  0  0  0  0  0  0  0
   26.4567    7.0446   32.2312 H   0  0  0  0  0  0  0  0  0  0  0  0
   24.3194    5.8016   32.4071 H   0  0  0  0  0  0  0  0  0  0  0  0
   24.2101    3.3955   31.8347 H   0  0  0  0  0  0  0  0  0  0  0  0
   26.2395    2.1797   31.0927 H   0  0  0  0  0  0  0  0  0  0  0  0
   29.0418    4.7263   33.6451 H   0  0  0  0  0  0  0  0  0  0  0  0
   30.0439    7.1079   35.1336 H   0  0  0  0  0  0  0  0  0  0  0  0
   29.4644    5.5821   35.8171 H   0  0  0  0  0  0  0  0  0  0  0  0
   26.3300   18.7353   22.1944 H   0  0  0  0  0  0  0  0  0  0  0  0
   28.2949   19.7096   23.3200 H   0  0  0  0  0  0  0  0  0  0  0  0
   29.2198   18.6522   25.3655 H   0  0  0  0  0  0  0  0  0  0  0  0
   28.1658   16.6111   26.2854 H   0  0  0  0  0  0  0  0  0  0  0  0
   26.1302   15.6185   21.2964 H   0  0  0  0  0  0  0  0  0  0  0  0
   24.1947   14.7227   20.0671 H   0  0  0  0  0  0  0  0  0  0  0  0
   21.5421   16.4120   23.0223 H   0  0  0  0  0  0  0  0  0  0  0  0
   23.4772   17.3032   24.2466 H   0  0  0  0  0  0  0  0  0  0  0  0
  1  8  1  0
  8  9  1  0
  9 10  1  0
 10 11  1  0
 11 12  1  0
 12 13  1  0
 12 14  1  0
 14 15  2  0
 15 16  1  0
 16 17  1  0
 17 12  1  0
 16 18  2  0
 18 19  1  0
 19 20  2  0
 20 21  1  0
 21 17  2  0
 14 22  1  0
 22 23  2  0
 23 24  1  0
 24 25  2  0
 25 15  1  0
 13 26  2  0
 13 27  1  0
 27 28  1  0
  7 29  1  0
 29 30  1  0
 29 31  2  0
 30 32  1  0
 32 33  2  0
 33 34  1  0
 34 35  2  0
 35 36  1  0
 36 30  2  0
 32 37  1  0
 37 38  2  0
 38 39  1  0
 39 40  2  0
 40 41  1  0
 41 42  2  0
 42 37  1  0
 40 43  1  0
 28 44  1  0
  1  2  1  0
  2  3  1  0
 44 45  1  0
  3  4  1  0
 44 46  1  0
  4  5  1  0
 44 47  1  0
  5  6  1  0
 43 48  1  0
  6  1  1  0
 43 49  1  0
  4  7  1  0
 43 50  1  0
  2 51  1  0
  2 52  1  0
  3 53  1  0
  3 54  1  0
  4 55  1  0
  5 56  1  0
  5 57  1  0
  6 58  1  0
  6 59  1  0
  7 60  1  0
  8 61  1  0
  8 62  1  0
  9 63  1  0
  9 64  1  0
 10 65  1  0
 10 66  1  0
 11 67  1  0
 11 68  1  0
 18 69  1  0
 19 70  1  0
 20 71  1  0
 21 72  1  0
 22 73  1  0
 23 74  1  0
 24 75  1  0
 25 76  1  0
 27 77  1  0
 28 78  1  0
 28 79  1  0
 33 80  1  0
 34 81  1  0
 35 82  1  0
 36 83  1  0
 38 84  1  0
 39 85  1  0
 41 86  1  0
 42 87  1  0
M  END
> <Uni-Dock RESULT> 
ENERGY=   -3.662  LOWER_BOUND=    5.530  UPPER_BOUND=   15.637
INTER + INTRA:          -3.662
INTER:                  -3.662
INTRA:                   0.000
UNBOUND:                 0.000

$$$$

     RDKit          3D

 87 92  0  0  0  0  0  0  0  0999 V2000
   32.4634   10.2331   28.0824 N   0  0  0  0  0  0  0  0  0  0  0  0
   31.4596    9.2369   28.4918 C   0  0  0  0  0  0  0  0  0  0  0  0
   31.8873    8.4709   29.7401 C   0  0  0  0  0  0  0  0  0  0  0  0
   33.1669    7.6649   29.4846 C   0  0  0  0  0  0  0  0  0  0  0  0
   34.0309    8.2959   28.3830 C   0  0  0  0  0  0  0  0  0  0  0  0
   33.8494    9.8091   28.3417 C   0  0  0  0  0  0  0  0  0  0  0  0
   33.9108    7.4975   30.7289 N   0  0  0  0  0  0  0  0  0  0  0  0
   32.2805   10.6624   26.6855 C   0  0  0  0  0  0  0  0  0  0  0  0
   30.9563   11.4043   26.4584 C   0  0  0  0  0  0  0  0  0  0  0  0
   30.8206   11.8646   25.0011 C   0  0  0  0  0  0  0  0  0  0  0  0
   29.5370   12.6845   24.8087 C   0  0  0  0  0  0  0  0  0  0  0  0
   29.3099   13.2994   23.4015 C   0  0  0  0  0  0  0  0  0  0  0  0
   30.3722   14.3652   23.0301 C   0  0  0  0  0  0  0  0  0  0  0  0
   29.1262   12.2364   22.3034 C   0  0  0  0  0  0  0  0  0  0  0  0
   27.7961   12.2478   21.8248 C   0  0  0  0  0  0  0  0  0  0  0  0
   27.0543   13.2912   22.4973 C   0  0  0  0  0  0  0  0  0  0  0  0
   27.9081   13.9527   23.4045 C   0  0  0  0  0  0  0  0  0  0  0  0
   25.7372   13.6951   22.3512 C   0  0  0  0  0  0  0  0  0  0  0  0
   25.2789   14.7710   23.1183 C   0  0  0  0  0  0  0  0  0  0  0  0
   26.1347   15.4325   24.0140 C   0  0  0  0  0  0  0  0  0  0  0  0
   27.4615   15.0270   24.1638 C   0  0  0  0  0  0  0  0  0  0  0  0
   30.0712   11.3793   21.7540 C   0  0  0  0  0  0  0  0  0  0  0  0
   29.6671   10.4977   20.7496 C   0  0  0  0  0  0  0  0  0  0  0  0
   28.3399   10.4894   20.2950 C   0  0  0  0  0  0  0  0  0  0  0  0
   27.3964   11.3716   20.8277 C   0  0  0  0  0  0  0  0  0  0  0  0
   31.2144   14.7829   23.8236 O   0  0  0  0  0  0  0  0  0  0  0  0
   30.3022   14.8587   21.7384 N   0  0  0  0  0  0  0  0  0  0  0  0
   31.1241   15.9957   21.3263 C   0  0  0  0  0  0  0  0  0  0  0  0
   34.8743    6.5221   30.8819 C   0  0  0  0  0  0  0  0  0  0  0  0
   35.5796    6.5554   32.1872 C   0  0  0  0  0  0  0  0  0  0  0  0
   35.1728    5.7045   30.0223 O   0  0  0  0  0  0  0  0  0  0  0  0
   35.5934    5.4410   33.0479 C   0  0  0  0  0  0  0  0  0  0  0  0
   36.2773    5.5662   34.2725 C   0  0  0  0  0  0  0  0  0  0  0  0
   36.9272    6.7526   34.6243 C   0  0  0  0  0  0  0  0  0  0  0  0
   36.9085    7.8417   33.7580 C   0  0  0  0  0  0  0  0  0  0  0  0
   36.2373    7.7464   32.5405 C   0  0  0  0  0  0  0  0  0  0  0  0
   34.9115    4.1756   32.7450 C   0  0  0  0  0  0  0  0  0  0  0  0
   33.6773    3.8673   33.3364 C   0  0  0  0  0  0  0  0  0  0  0  0
   33.0345    2.6555   33.0623 C   0  0  0  0  0  0  0  0  0  0  0  0
   33.6153    1.7192   32.1945 C   0  0  0  0  0  0  0  0  0  0  0  0
   34.8449    2.0274   31.5966 C   0  0  0  0  0  0  0  0  0  0  0  0
   35.4869    3.2382   31.8753 C   0  0  0  0  0  0  0  0  0  0  0  0
   32.9062    0.4242   31.8826 C   0  0  0  0  0  0  0  0  0  0  0  0
   30.5684   17.3706   21.7088 C   0  0  0  0  0  0  0  0  0  0  0  0
   31.3833   18.3530   21.2583 F   0  0  0  0  0  0  0  0  0  0  0  0
   30.4277   17.5314   23.0399 F   0  0  0  0  0  0  0  0  0  0  0  0
   29.3541   17.5657   21.1396 F   0  0  0  0  0  0  0  0  0  0  0  0
   32.2377   -0.0870   32.9555 F   0  0  0  0  0  0  0  0  0  0  0  0
   33.7461   -0.5663   31.4676 F   0  0  0  0  0  0  0  0  0  0  0  0
   31.9765    0.5632   30.8974 F   0  0  0  0  0  0  0  0  0  0  0  0
   30.5131    9.7448   28.7085 H   0  0  0  0  0  0  0  0  0  0  0  0
   31.2658    8.5156   27.6867 H   0  0  0  0  0  0  0  0  0  0  0  0
   31.0862    7.7932   30.0597 H   0  0  0  0  0  0  0  0  0  0  0  0
   32.0275    9.1830   30.5644 H   0  0  0  0  0  0  0  0  0  0  0  0
   32.8920    6.6564   29.1496 H   0  0  0  0  0  0  0  0  0  0  0  0
   35.0915    8.0534   28.5139 H   0  0  0  0  0  0  0  0  0  0  0  0
   33.7372    7.8789   27.4109 H   0  0  0  0  0  0  0  0  0  0  0  0
   34.1470   10.2250   29.3130 H   0  0  0  0  0  0  0  0  0  0  0  0
   34.5491   10.2428   27.6164 H   0  0  0  0  0  0  0  0  0  0  0  0
   33.7653    8.1622   31.4784 H   0  0  0  0  0  0  0  0  0  0  0  0
   32.3569    9.8047   26.0052 H   0  0  0  0  0  0  0  0  0  0  0  0
   33.0874   11.3558   26.4139 H   0  0  0  0  0  0  0  0  0  0  0  0
   30.1039   10.7587   26.6996 H   0  0  0  0  0  0  0  0  0  0  0  0
   30.9084   12.2737   27.1261 H   0  0  0  0  0  0  0  0  0  0  0  0
   31.6995   12.4538   24.7194 H   0  0  0  0  0  0  0  0  0  0  0  0
   30.8019   10.9742   24.3655 H   0  0  0  0  0  0  0  0  0  0  0  0
   29.5406   13.4939   25.5520 H   0  0  0  0  0  0  0  0  0  0  0  0
   28.6847   12.0412   25.0723 H   0  0  0  0  0  0  0  0  0  0  0  0
   25.0676   13.1959   21.6587 H   0  0  0  0  0  0  0  0  0  0  0  0
   24.2476   15.1022   23.0194 H   0  0  0  0  0  0  0  0  0  0  0  0
   25.7582   16.2691   24.5987 H   0  0  0  0  0  0  0  0  0  0  0  0
   28.1200   15.5408   24.8589 H   0  0  0  0  0  0  0  0  0  0  0  0
   31.1062   11.3902   22.0822 H   0  0  0  0  0  0  0  0  0  0  0  0
   30.3888    9.8116   20.3109 H   0  0  0  0  0  0  0  0  0  0  0  0
   28.0458    9.7945   19.5116 H   0  0  0  0  0  0  0  0  0  0  0  0
   26.3775   11.3679   20.4542 H   0  0  0  0  0  0  0  0  0  0  0  0
   29.4699   14.6451   21.1962 H   0  0  0  0  0  0  0  0  0  0  0  0
   32.1268   15.8787   21.7534 H   0  0  0  0  0  0  0  0  0  0  0  0
   31.2169   15.9318   20.2368 H   0  0  0  0  0  0  0  0  0  0  0  0
   36.3084    4.7243   34.9634 H   0  0  0  0  0  0  0  0  0  0  0  0
   37.4518    6.8210   35.5746 H   0  0  0  0  0  0  0  0  0  0  0  0
   37.4220    8.7615   34.0282 H   0  0  0  0  0  0  0  0  0  0  0  0
   36.2427    8.5945   31.8593 H   0  0  0  0  0  0  0  0  0  0  0  0
   33.2042    4.5762   34.0135 H   0  0  0  0  0  0  0  0  0  0  0  0
   32.0742    2.4433   33.5299 H   0  0  0  0  0  0  0  0  0  0  0  0
   35.3116    1.3295   30.9027 H   0  0  0  0  0  0  0  0  0  0  0  0
   36.4351    3.4603   31.3874 H   0  0  0  0  0  0  0  0  0  0  0  0
  1  8  1  0
  8  9  1  0
  9 10  1  0
 10 11  1  0
 11 12  1  0
 12 13  1  0
 12 14  1  0
 14 15  2  0
 15 16  1  0
 16 17  1  0
 17 12  1  0
 16 18  2  0
 18 19  1  0
 19 20  2  0
 20 21  1  0
 21 17  2  0
 14 22  1  0
 22 23  2  0
 23 24  1  0
 24 25  2  0
 25 15  1  0
 13 26  2  0
 13 27  1  0
 27 28  1  0
  7 29  1  0
 29 30  1  0
 29 31  2  0
 30 32  1  0
 32 33  2  0
 33 34  1  0
 34 35  2  0
 35 36  1  0
 36 30  2  0
 32 37  1  0
 37 38  2  0
 38 39  1  0
 39 40  2  0
 40 41  1  0
 41 42  2  0
 42 37  1  0
 40 43  1  0
 28 44  1  0
  1  2  1  0
  2  3  1  0
 44 45  1  0
  3  4  1  0
 44 46  1  0
  4  5  1  0
 44 47  1  0
  5  6  1  0
 43 48  1  0
  6  1  1  0
 43 49  1  0
  4  7  1  0
 43 50  1  0
  2 51  1  0
  2 52  1  0
  3 53  1  0
  3 54  1  0
  4 55  1  0
  5 56  1  0
  5 57  1  0
  6 58  1  0
  6 59  1  0
  7 60  1  0
  8 61  1  0
  8 62  1  0
  9 63  1  0
  9 64  1  0
 10 65  1  0
 10 66  1  0
 11 67  1  0
 11 68  1  0
 18 69  1  0
 19 70  1  0
 20 71  1  0
 21 72  1  0
 22 73  1  0
 23 74  1  0
 24 75  1  0
 25 76  1  0
 27 77  1  0
 28 78  1  0
 28 79  1  0
 33 80  1  0
 34 81  1  0
 35 82  1  0
 36 83  1  0
 38 84  1  0
 39 85  1  0
 41 86  1  0
 42 87  1  0
M  END
> <Uni-Dock RESULT> 
ENERGY=   -3.632  LOWER_BOUND=    4.039  UPPER_BOUND=    6.499
INTER + INTRA:          -3.632
INTER:                  -3.632
INTRA:                   0.000
UNBOUND:                 0.000

$$$$
