
     RDKit          3D

 87 92  0  0  0  0  0  0  0  0999 V2000
   31.9047   11.0488   29.1838 N   0  0  0  0  0  0  0  0  0  0  0  0
   33.0702   10.1940   28.9877 C   0  0  0  0  0  0  0  0  0  0  0  0
   32.7471    8.7166   28.7615 C   0  0  0  0  0  0  0  0  0  0  0  0
   31.7996    8.1821   29.8363 C   0  0  0  0  0  0  0  0  0  0  0  0
   30.5523    9.0635   29.9314 C   0  0  0  0  0  0  0  0  0  0  0  0
   30.9334   10.5253   30.1413 C   0  0  0  0  0  0  0  0  0  0  0  0
   31.4422    6.7959   29.5581 N   0  0  0  0  0  0  0  0  0  0  0  0
   31.3484   11.6991   27.9983 C   0  0  0  0  0  0  0  0  0  0  0  0
   30.9471   10.8014   26.8232 C   0  0  0  0  0  0  0  0  0  0  0  0
   30.1486   11.5411   25.7404 C   0  0  0  0  0  0  0  0  0  0  0  0
   30.9470   12.6529   25.0360 C   0  0  0  0  0  0  0  0  0  0  0  0
   30.2037   13.3666   23.8731 C   0  0  0  0  0  0  0  0  0  0  0  0
   31.0783   14.5323   23.3082 C   0  0  0  0  0  0  0  0  0  0  0  0
   28.8318   13.9031   24.3275 C   0  0  0  0  0  0  0  0  0  0  0  0
   27.8015   13.3428   23.5435 C   0  0  0  0  0  0  0  0  0  0  0  0
   28.3797   12.4313   22.5808 C   0  0  0  0  0  0  0  0  0  0  0  0
   29.7830   12.3952   22.7512 C   0  0  0  0  0  0  0  0  0  0  0  0
   27.7611   11.6411   21.6240 C   0  0  0  0  0  0  0  0  0  0  0  0
   28.5510   10.8006   20.8362 C   0  0  0  0  0  0  0  0  0  0  0  0
   29.9405   10.7491   21.0162 C   0  0  0  0  0  0  0  0  0  0  0  0
   30.5662   11.5422   21.9809 C   0  0  0  0  0  0  0  0  0  0  0  0
   28.5486   14.8040   25.3470 C   0  0  0  0  0  0  0  0  0  0  0  0
   27.2149   15.1423   25.5810 C   0  0  0  0  0  0  0  0  0  0  0  0
   26.1879   14.5837   24.8040 C   0  0  0  0  0  0  0  0  0  0  0  0
   26.4773   13.6777   23.7793 C   0  0  0  0  0  0  0  0  0  0  0  0
   30.7377   15.7142   23.3227 O   0  0  0  0  0  0  0  0  0  0  0  0
   32.3131   14.1770   22.7913 N   0  0  0  0  0  0  0  0  0  0  0  0
   33.2543   15.2041   22.3365 C   0  0  0  0  0  0  0  0  0  0  0  0
   30.9096    5.9765   30.5326 C   0  0  0  0  0  0  0  0  0  0  0  0
   30.5154    4.6251   30.0611 C   0  0  0  0  0  0  0  0  0  0  0  0
   30.7413    6.3099   31.6972 O   0  0  0  0  0  0  0  0  0  0  0  0
   30.9943    3.4635   30.6968 C   0  0  0  0  0  0  0  0  0  0  0  0
   30.5546    2.2185   30.2089 C   0  0  0  0  0  0  0  0  0  0  0  0
   29.6697    2.1344   29.1305 C   0  0  0  0  0  0  0  0  0  0  0  0
   29.2009    3.2930   28.5180 C   0  0  0  0  0  0  0  0  0  0  0  0
   29.6207    4.5385   28.9811 C   0  0  0  0  0  0  0  0  0  0  0  0
   31.9345    3.4968   31.8255 C   0  0  0  0  0  0  0  0  0  0  0  0
   31.4849    3.2553   33.1322 C   0  0  0  0  0  0  0  0  0  0  0  0
   32.3699    3.2978   34.2133 C   0  0  0  0  0  0  0  0  0  0  0  0
   33.7295    3.5724   34.0110 C   0  0  0  0  0  0  0  0  0  0  0  0
   34.1831    3.8130   32.7058 C   0  0  0  0  0  0  0  0  0  0  0  0
   33.2958    3.7716   31.6254 C   0  0  0  0  0  0  0  0  0  0  0  0
   34.6783    3.6554   35.1804 C   0  0  0  0  0  0  0  0  0  0  0  0
   34.1712   15.7630   23.4245 C   0  0  0  0  0  0  0  0  0  0  0  0
   34.9306   14.7665   23.9458 F   0  0  0  0  0  0  0  0  0  0  0  0
   33.4981   16.3338   24.4406 F   0  0  0  0  0  0  0  0  0  0  0  0
   35.0157   16.6880   22.9124 F   0  0  0  0  0  0  0  0  0  0  0  0
   34.8135    4.9231   35.6578 F   0  0  0  0  0  0  0  0  0  0  0  0
   34.2884    2.8954   36.2422 F   0  0  0  0  0  0  0  0  0  0  0  0
   35.9403    3.2388   34.8728 F   0  0  0  0  0  0  0  0  0  0  0  0
   33.6978   10.5688   28.1692 H   0  0  0  0  0  0  0  0  0  0  0  0
   33.6940   10.2710   29.8887 H   0  0  0  0  0  0  0  0  0  0  0  0
   32.3091    8.5671   27.7673 H   0  0  0  0  0  0  0  0  0  0  0  0
   33.6790    8.1361   28.7713 H   0  0  0  0  0  0  0  0  0  0  0  0
   32.3163    8.1964   30.8057 H   0  0  0  0  0  0  0  0  0  0  0  0
   29.9361    8.9514   29.0331 H   0  0  0  0  0  0  0  0  0  0  0  0
   29.9229    8.7373   30.7684 H   0  0  0  0  0  0  0  0  0  0  0  0
   30.0271   11.1431   30.1657 H   0  0  0  0  0  0  0  0  0  0  0  0
   31.3716   10.6225   31.1438 H   0  0  0  0  0  0  0  0  0  0  0  0
   31.5050    6.4535   28.6089 H   0  0  0  0  0  0  0  0  0  0  0  0
   30.4927   12.3202   28.2933 H   0  0  0  0  0  0  0  0  0  0  0  0
   32.1018   12.4146   27.6449 H   0  0  0  0  0  0  0  0  0  0  0  0
   31.8399   10.3592   26.3660 H   0  0  0  0  0  0  0  0  0  0  0  0
   30.3205    9.9776   27.1752 H   0  0  0  0  0  0  0  0  0  0  0  0
   29.8254   10.7961   25.0035 H   0  0  0  0  0  0  0  0  0  0  0  0
   29.2404   11.9521   26.1960 H   0  0  0  0  0  0  0  0  0  0  0  0
   31.2400   13.4095   25.7754 H   0  0  0  0  0  0  0  0  0  0  0  0
   31.8815   12.2126   24.6672 H   0  0  0  0  0  0  0  0  0  0  0  0
   26.6856   11.6654   21.4849 H   0  0  0  0  0  0  0  0  0  0  0  0
   28.0825   10.1756   20.0797 H   0  0  0  0  0  0  0  0  0  0  0  0
   30.5345   10.0804   20.3968 H   0  0  0  0  0  0  0  0  0  0  0  0
   31.6397   11.4733   22.1101 H   0  0  0  0  0  0  0  0  0  0  0  0
   29.3410   15.2539   25.9377 H   0  0  0  0  0  0  0  0  0  0  0  0
   26.9692   15.8526   26.3668 H   0  0  0  0  0  0  0  0  0  0  0  0
   25.1554   14.8647   24.9988 H   0  0  0  0  0  0  0  0  0  0  0  0
   25.6741   13.2522   23.1869 H   0  0  0  0  0  0  0  0  0  0  0  0
   32.6733   13.2469   22.9515 H   0  0  0  0  0  0  0  0  0  0  0  0
   32.6934   16.0243   21.8765 H   0  0  0  0  0  0  0  0  0  0  0  0
   33.8627   14.7405   21.5537 H   0  0  0  0  0  0  0  0  0  0  0  0
   30.9073    1.2992   30.6747 H   0  0  0  0  0  0  0  0  0  0  0  0
   29.3410    1.1603   28.7754 H   0  0  0  0  0  0  0  0  0  0  0  0
   28.5001    3.2260   27.6894 H   0  0  0  0  0  0  0  0  0  0  0  0
   29.2272    5.4408   28.5198 H   0  0  0  0  0  0  0  0  0  0  0  0
   30.4301    3.0566   33.3165 H   0  0  0  0  0  0  0  0  0  0  0  0
   31.9870    3.1274   35.2190 H   0  0  0  0  0  0  0  0  0  0  0  0
   35.2318    4.0444   32.5251 H   0  0  0  0  0  0  0  0  0  0  0  0
   33.6739    3.9650   30.6240 H   0  0  0  0  0  0  0  0  0  0  0  0
  1  8  1  0
  8  9  1  0
  9 10  1  0
 10 11  1  0
 11 12  1  0
 12 13  1  0
 12 14  1  0
 14 15  2  0
 15 16  1  0
 16 17  1  0
 17 12  1  0
 16 18  2  0
 18 19  1  0
 19 20  2  0
 20 21  1  0
 21 17  2  0
 14 22  1  0
 22 23  2  0
 23 24  1  0
 24 25  2  0
 25 15  1  0
 13 26  2  0
 13 27  1  0
 27 28  1  0
  7 29  1  0
 29 30  1  0
 29 31  2  0
 30 32  1  0
 32 33  2  0
 33 34  1  0
 34 35  2  0
 35 36  1  0
 36 30  2  0
 32 37  1  0
 37 38  2  0
 38 39  1  0
 39 40  2  0
 40 41  1  0
 41 42  2  0
 42 37  1  0
 40 43  1  0
 28 44  1  0
  1  2  1  0
  2  3  1  0
 44 45  1  0
  3  4  1  0
 44 46  1  0
  4  5  1  0
 44 47  1  0
  5  6  1  0
 43 48  1  0
  6  1  1  0
 43 49  1  0
  4  7  1  0
 43 50  1  0
  2 51  1  0
  2 52  1  0
  3 53  1  0
  3 54  1  0
  4 55  1  0
  5 56  1  0
  5 57  1  0
  6 58  1  0
  6 59  1  0
  7 60  1  0
  8 61  1  0
  8 62  1  0
  9 63  1  0
  9 64  1  0
 10 65  1  0
 10 66  1  0
 11 67  1  0
 11 68  1  0
 18 69  1  0
 19 70  1  0
 20 71  1  0
 21 72  1  0
 22 73  1  0
 23 74  1  0
 24 75  1  0
 25 76  1  0
 27 77  1  0
 28 78  1  0
 28 79  1  0
 33 80  1  0
 34 81  1  0
 35 82  1  0
 36 83  1  0
 38 84  1  0
 39 85  1  0
 41 86  1  0
 42 87  1  0
M  END
> <Uni-Dock RESULT> 
ENERGY=   -4.475  LOWER_BOUND=    0.000  UPPER_BOUND=    0.000
INTER + INTRA:          -4.475
INTER:                  -4.475
INTRA:                   0.000
UNBOUND:                 0.000

$$$$

     RDKit          3D

 87 92  0  0  0  0  0  0  0  0999 V2000
   31.9096   11.0409   29.1923 N   0  0  0  0  0  0  0  0  0  0  0  0
   33.0743   10.1854   28.9947 C   0  0  0  0  0  0  0  0  0  0  0  0
   32.7501    8.7085   28.7670 C   0  0  0  0  0  0  0  0  0  0  0  0
   31.8025    8.1735   29.8416 C   0  0  0  0  0  0  0  0  0  0  0  0
   30.5560    9.0558   29.9382 C   0  0  0  0  0  0  0  0  0  0  0  0
   30.9383   10.5170   30.1495 C   0  0  0  0  0  0  0  0  0  0  0  0
   31.4441    6.7879   29.5620 N   0  0  0  0  0  0  0  0  0  0  0  0
   31.3533   11.6929   28.0077 C   0  0  0  0  0  0  0  0  0  0  0  0
   30.9508   10.7969   26.8318 C   0  0  0  0  0  0  0  0  0  0  0  0
   30.1524   11.5384   25.7501 C   0  0  0  0  0  0  0  0  0  0  0  0
   30.9513   12.6503   25.0466 C   0  0  0  0  0  0  0  0  0  0  0  0
   30.2081   13.3658   23.8848 C   0  0  0  0  0  0  0  0  0  0  0  0
   31.0833   14.5315   23.3208 C   0  0  0  0  0  0  0  0  0  0  0  0
   28.8367   13.9029   24.3404 C   0  0  0  0  0  0  0  0  0  0  0  0
   27.8057   13.3442   23.5562 C   0  0  0  0  0  0  0  0  0  0  0  0
   28.3829   12.4333   22.5922 C   0  0  0  0  0  0  0  0  0  0  0  0
   29.7862   12.3960   22.7620 C   0  0  0  0  0  0  0  0  0  0  0  0
   27.7633   11.6447   21.6348 C   0  0  0  0  0  0  0  0  0  0  0  0
   28.5522   10.8044   20.8457 C   0  0  0  0  0  0  0  0  0  0  0  0
   29.9418   10.7517   21.0251 C   0  0  0  0  0  0  0  0  0  0  0  0
   30.5685   11.5433   21.9905 C   0  0  0  0  0  0  0  0  0  0  0  0
   28.5546   14.8028   25.3610 C   0  0  0  0  0  0  0  0  0  0  0  0
   27.2213   15.1418   25.5959 C   0  0  0  0  0  0  0  0  0  0  0  0
   26.1935   14.5849   24.8187 C   0  0  0  0  0  0  0  0  0  0  0  0
   26.4819   13.6798   23.7928 C   0  0  0  0  0  0  0  0  0  0  0  0
   30.7437   15.7137   23.3368 O   0  0  0  0  0  0  0  0  0  0  0  0
   32.3176   14.1759   22.8031 N   0  0  0  0  0  0  0  0  0  0  0  0
   33.2594   15.2028   22.3490 C   0  0  0  0  0  0  0  0  0  0  0  0
   30.9112    5.9678   30.5358 C   0  0  0  0  0  0  0  0  0  0  0  0
   30.5158    4.6173   30.0629 C   0  0  0  0  0  0  0  0  0  0  0  0
   30.7436    6.3001   31.7008 O   0  0  0  0  0  0  0  0  0  0  0  0
   30.9941    3.4546   30.6972 C   0  0  0  0  0  0  0  0  0  0  0  0
   30.5534    2.2105   30.2081 C   0  0  0  0  0  0  0  0  0  0  0  0
   29.6679    2.1282   29.1300 C   0  0  0  0  0  0  0  0  0  0  0  0
   29.1998    3.2879   28.5189 C   0  0  0  0  0  0  0  0  0  0  0  0
   29.6207    4.5325   28.9833 C   0  0  0  0  0  0  0  0  0  0  0  0
   31.9349    3.4860   31.8255 C   0  0  0  0  0  0  0  0  0  0  0  0
   31.4856    3.2434   33.1322 C   0  0  0  0  0  0  0  0  0  0  0  0
   32.3710    3.2840   34.2130 C   0  0  0  0  0  0  0  0  0  0  0  0
   33.7307    3.5579   34.0104 C   0  0  0  0  0  0  0  0  0  0  0  0
   34.1840    3.7995   32.7053 C   0  0  0  0  0  0  0  0  0  0  0  0
   33.2963    3.7599   31.6252 C   0  0  0  0  0  0  0  0  0  0  0  0
   34.6801    3.6388   35.1795 C   0  0  0  0  0  0  0  0  0  0  0  0
   34.1772   15.7598   23.4373 C   0  0  0  0  0  0  0  0  0  0  0  0
   34.9361   14.7622   23.9571 F   0  0  0  0  0  0  0  0  0  0  0  0
   33.5049   16.3300   24.4543 F   0  0  0  0  0  0  0  0  0  0  0  0
   35.0222   16.6848   22.9259 F   0  0  0  0  0  0  0  0  0  0  0  0
   34.8164    4.9059   35.6583 F   0  0  0  0  0  0  0  0  0  0  0  0
   34.2900    2.8779   36.2406 F   0  0  0  0  0  0  0  0  0  0  0  0
   35.9416    3.2216   34.8709 F   0  0  0  0  0  0  0  0  0  0  0  0
   33.7019   10.5608   28.1764 H   0  0  0  0  0  0  0  0  0  0  0  0
   33.6986   10.2610   29.8956 H   0  0  0  0  0  0  0  0  0  0  0  0
   32.3116    8.5605   27.7729 H   0  0  0  0  0  0  0  0  0  0  0  0
   33.6815    8.1274   28.7758 H   0  0  0  0  0  0  0  0  0  0  0  0
   32.3196    8.1864   30.8108 H   0  0  0  0  0  0  0  0  0  0  0  0
   29.9393    8.9451   29.0400 H   0  0  0  0  0  0  0  0  0  0  0  0
   29.9266    8.7291   30.7751 H   0  0  0  0  0  0  0  0  0  0  0  0
   30.0324   11.1355   30.1750 H   0  0  0  0  0  0  0  0  0  0  0  0
   31.3769   10.6129   31.1520 H   0  0  0  0  0  0  0  0  0  0  0  0
   31.5062    6.4465   28.6124 H   0  0  0  0  0  0  0  0  0  0  0  0
   30.4981   12.3143   28.3038 H   0  0  0  0  0  0  0  0  0  0  0  0
   32.1070   12.4082   27.6548 H   0  0  0  0  0  0  0  0  0  0  0  0
   31.8431   10.3545   26.3737 H   0  0  0  0  0  0  0  0  0  0  0  0
   30.3238    9.9731   27.1831 H   0  0  0  0  0  0  0  0  0  0  0  0
   29.8284   10.7944   25.0125 H   0  0  0  0  0  0  0  0  0  0  0  0
   29.2447   11.9495   26.2066 H   0  0  0  0  0  0  0  0  0  0  0  0
   31.2452   13.4058   25.7868 H   0  0  0  0  0  0  0  0  0  0  0  0
   31.8853   12.2097   24.6770 H   0  0  0  0  0  0  0  0  0  0  0  0
   26.6877   11.6699   21.4961 H   0  0  0  0  0  0  0  0  0  0  0  0
   28.0831   10.1806   20.0887 H   0  0  0  0  0  0  0  0  0  0  0  0
   30.5350   10.0832   20.4047 H   0  0  0  0  0  0  0  0  0  0  0  0
   31.6420   11.4735   22.1191 H   0  0  0  0  0  0  0  0  0  0  0  0
   29.3477   15.2515   25.9519 H   0  0  0  0  0  0  0  0  0  0  0  0
   26.9764   15.8514   26.3826 H   0  0  0  0  0  0  0  0  0  0  0  0
   25.1614   14.8664   25.0142 H   0  0  0  0  0  0  0  0  0  0  0  0
   25.6782   13.2556   23.2003 H   0  0  0  0  0  0  0  0  0  0  0  0
   32.6772   13.2454   22.9621 H   0  0  0  0  0  0  0  0  0  0  0  0
   32.6989   16.0239   21.8901 H   0  0  0  0  0  0  0  0  0  0  0  0
   33.8672   14.7396   21.5655 H   0  0  0  0  0  0  0  0  0  0  0  0
   30.9056    1.2904   30.6727 H   0  0  0  0  0  0  0  0  0  0  0  0
   29.3384    1.1547   28.7739 H   0  0  0  0  0  0  0  0  0  0  0  0
   28.4986    3.2223   27.6905 H   0  0  0  0  0  0  0  0  0  0  0  0
   29.2277    5.4357   28.5231 H   0  0  0  0  0  0  0  0  0  0  0  0
   30.4307    3.0452   33.3167 H   0  0  0  0  0  0  0  0  0  0  0  0
   31.9884    3.1128   35.2186 H   0  0  0  0  0  0  0  0  0  0  0  0
   35.2328    4.0303   32.5245 H   0  0  0  0  0  0  0  0  0  0  0  0
   33.6741    3.9542   30.6239 H   0  0  0  0  0  0  0  0  0  0  0  0
  1  8  1  0
  8  9  1  0
  9 10  1  0
 10 11  1  0
 11 12  1  0
 12 13  1  0
 12 14  1  0
 14 15  2  0
 15 16  1  0
 16 17  1  0
 17 12  1  0
 16 18  2  0
 18 19  1  0
 19 20  2  0
 20 21  1  0
 21 17  2  0
 14 22  1  0
 22 23  2  0
 23 24  1  0
 24 25  2  0
 25 15  1  0
 13 26  2  0
 13 27  1  0
 27 28  1  0
  7 29  1  0
 29 30  1  0
 29 31  2  0
 30 32  1  0
 32 33  2  0
 33 34  1  0
 34 35  2  0
 35 36  1  0
 36 30  2  0
 32 37  1  0
 37 38  2  0
 38 39  1  0
 39 40  2  0
 40 41  1  0
 41 42  2  0
 42 37  1  0
 40 43  1  0
 28 44  1  0
  1  2  1  0
  2  3  1  0
 44 45  1  0
  3  4  1  0
 44 46  1  0
  4  5  1  0
 44 47  1  0
  5  6  1  0
 43 48  1  0
  6  1  1  0
 43 49  1  0
  4  7  1  0
 43 50  1  0
  2 51  1  0
  2 52  1  0
  3 53  1  0
  3 54  1  0
  4 55  1  0
  5 56  1  0
  5 57  1  0
  6 58  1  0
  6 59  1  0
  7 60  1  0
  8 61  1  0
  8 62  1  0
  9 63  1  0
  9 64  1  0
 10 65  1  0
 10 66  1  0
 11 67  1  0
 11 68  1  0
 18 69  1  0
 19 70  1  0
 20 71  1  0
 21 72  1  0
 22 73  1  0
 23 74  1  0
 24 75  1  0
 25 76  1  0
 27 77  1  0
 28 78  1  0
 28 79  1  0
 33 80  1  0
 34 81  1  0
 35 82  1  0
 36 83  1  0
 38 84  1  0
 39 85  1  0
 41 86  1  0
 42 87  1  0
M  END
> <Uni-Dock RESULT> 
ENERGY=   -4.473  LOWER_BOUND=    0.013  UPPER_BOUND=    0.013
INTER + INTRA:          -4.473
INTER:                  -4.473
INTRA:                   0.000
UNBOUND:                 0.000

$$$$

     RDKit          3D

 87 92  0  0  0  0  0  0  0  0999 V2000
   32.0390    9.4910   28.5376 N   0  0  0  0  0  0  0  0  0  0  0  0
   31.7581    8.3304   27.7000 C   0  0  0  0  0  0  0  0  0  0  0  0
   30.4402    7.6212   28.0134 C   0  0  0  0  0  0  0  0  0  0  0  0
   30.3135    7.3140   29.5061 C   0  0  0  0  0  0  0  0  0  0  0  0
   30.5237    8.5859   30.3304 C   0  0  0  0  0  0  0  0  0  0  0  0
   31.8432    9.2586   29.9666 C   0  0  0  0  0  0  0  0  0  0  0  0
   29.0180    6.7099   29.7948 N   0  0  0  0  0  0  0  0  0  0  0  0
   31.6073   10.7947   28.0360 C   0  0  0  0  0  0  0  0  0  0  0  0
   30.1273   10.9574   27.6740 C   0  0  0  0  0  0  0  0  0  0  0  0
   29.7263   12.4143   27.4022 C   0  0  0  0  0  0  0  0  0  0  0  0
   30.4252   13.0284   26.1759 C   0  0  0  0  0  0  0  0  0  0  0  0
   29.9805   14.4725   25.8144 C   0  0  0  0  0  0  0  0  0  0  0  0
   30.8282   15.0152   24.6187 C   0  0  0  0  0  0  0  0  0  0  0  0
   30.1024   15.4186   27.0254 C   0  0  0  0  0  0  0  0  0  0  0  0
   28.8499   15.9931   27.3276 C   0  0  0  0  0  0  0  0  0  0  0  0
   27.8591   15.4841   26.4049 C   0  0  0  0  0  0  0  0  0  0  0  0
   28.4708   14.5721   25.5139 C   0  0  0  0  0  0  0  0  0  0  0  0
   26.4994   15.7448   26.3299 C   0  0  0  0  0  0  0  0  0  0  0  0
   25.7422   15.0816   25.3615 C   0  0  0  0  0  0  0  0  0  0  0  0
   26.3430   14.1628   24.4893 C   0  0  0  0  0  0  0  0  0  0  0  0
   27.7122   13.8963   24.5641 C   0  0  0  0  0  0  0  0  0  0  0  0
   31.2317   15.7242   27.7754 C   0  0  0  0  0  0  0  0  0  0  0  0
   31.0982   16.6152   28.8413 C   0  0  0  0  0  0  0  0  0  0  0  0
   29.8523   17.1858   29.1456 C   0  0  0  0  0  0  0  0  0  0  0  0
   28.7187   16.8754   28.3884 C   0  0  0  0  0  0  0  0  0  0  0  0
   31.5562   16.0044   24.6875 O   0  0  0  0  0  0  0  0  0  0  0  0
   30.7478   14.2994   23.4358 N   0  0  0  0  0  0  0  0  0  0  0  0
   31.5851   14.6595   22.2883 C   0  0  0  0  0  0  0  0  0  0  0  0
   28.7876    6.0166   30.9657 C   0  0  0  0  0  0  0  0  0  0  0  0
   27.3911    5.5460   31.1449 C   0  0  0  0  0  0  0  0  0  0  0  0
   29.6367    5.8058   31.8203 O   0  0  0  0  0  0  0  0  0  0  0  0
   27.1071    4.1929   31.4120 C   0  0  0  0  0  0  0  0  0  0  0  0
   25.7602    3.8280   31.5962 C   0  0  0  0  0  0  0  0  0  0  0  0
   24.7358    4.7756   31.5198 C   0  0  0  0  0  0  0  0  0  0  0  0
   25.0349    6.1102   31.2614 C   0  0  0  0  0  0  0  0  0  0  0  0
   26.3603    6.4983   31.0748 C   0  0  0  0  0  0  0  0  0  0  0  0
   28.1453    3.1561   31.4905 C   0  0  0  0  0  0  0  0  0  0  0  0
   28.5550    2.6535   32.7346 C   0  0  0  0  0  0  0  0  0  0  0  0
   29.5509    1.6765   32.8195 C   0  0  0  0  0  0  0  0  0  0  0  0
   30.1537    1.1707   31.6594 C   0  0  0  0  0  0  0  0  0  0  0  0
   29.7458    1.6697   30.4137 C   0  0  0  0  0  0  0  0  0  0  0  0
   28.7501    2.6483   30.3308 C   0  0  0  0  0  0  0  0  0  0  0  0
   31.2545    0.1438   31.7514 C   0  0  0  0  0  0  0  0  0  0  0  0
   32.9690   14.0102   22.2732 C   0  0  0  0  0  0  0  0  0  0  0  0
   32.8453   12.6594   22.2348 F   0  0  0  0  0  0  0  0  0  0  0  0
   33.7091   14.3191   23.3541 F   0  0  0  0  0  0  0  0  0  0  0  0
   33.6626   14.3832   21.1729 F   0  0  0  0  0  0  0  0  0  0  0  0
   32.4947    0.7045   31.7761 F   0  0  0  0  0  0  0  0  0  0  0  0
   31.1722   -0.6317   32.8690 F   0  0  0  0  0  0  0  0  0  0  0  0
   31.2615   -0.7250   30.6998 F   0  0  0  0  0  0  0  0  0  0  0  0
   31.7953    8.5969   26.6360 H   0  0  0  0  0  0  0  0  0  0  0  0
   32.5745    7.6099   27.8461 H   0  0  0  0  0  0  0  0  0  0  0  0
   29.5891    8.2281   27.6818 H   0  0  0  0  0  0  0  0  0  0  0  0
   30.3862    6.6865   27.4398 H   0  0  0  0  0  0  0  0  0  0  0  0
   31.0832    6.5815   29.7855 H   0  0  0  0  0  0  0  0  0  0  0  0
   29.6865    9.2771   30.1861 H   0  0  0  0  0  0  0  0  0  0  0  0
   30.5315    8.3450   31.4005 H   0  0  0  0  0  0  0  0  0  0  0  0
   31.9538   10.1881   30.5390 H   0  0  0  0  0  0  0  0  0  0  0  0
   32.6616    8.6124   30.3118 H   0  0  0  0  0  0  0  0  0  0  0  0
   28.2465    6.8770   29.1630 H   0  0  0  0  0  0  0  0  0  0  0  0
   31.8961   11.5733   28.7540 H   0  0  0  0  0  0  0  0  0  0  0  0
   32.2069   11.0060   27.1415 H   0  0  0  0  0  0  0  0  0  0  0  0
   29.8875   10.3528   26.7917 H   0  0  0  0  0  0  0  0  0  0  0  0
   29.4976   10.6005   28.4933 H   0  0  0  0  0  0  0  0  0  0  0  0
   28.6397   12.4345   27.2555 H   0  0  0  0  0  0  0  0  0  0  0  0
   29.9368   13.0074   28.2996 H   0  0  0  0  0  0  0  0  0  0  0  0
   31.5100   13.0324   26.3443 H   0  0  0  0  0  0  0  0  0  0  0  0
   30.2541   12.3605   25.3229 H   0  0  0  0  0  0  0  0  0  0  0  0
   26.0233   16.4454   27.0075 H   0  0  0  0  0  0  0  0  0  0  0  0
   24.6748   15.2756   25.2873 H   0  0  0  0  0  0  0  0  0  0  0  0
   25.7316   13.6516   23.7487 H   0  0  0  0  0  0  0  0  0  0  0  0
   28.1497   13.1713   23.8882 H   0  0  0  0  0  0  0  0  0  0  0  0
   32.2016   15.3009   27.5317 H   0  0  0  0  0  0  0  0  0  0  0  0
   31.9696   16.8773   29.4367 H   0  0  0  0  0  0  0  0  0  0  0  0
   29.7705   17.8821   29.9770 H   0  0  0  0  0  0  0  0  0  0  0  0
   27.7613   17.3223   28.6348 H   0  0  0  0  0  0  0  0  0  0  0  0
   30.3096   13.3892   23.4310 H   0  0  0  0  0  0  0  0  0  0  0  0
   31.6937   15.7485   22.2528 H   0  0  0  0  0  0  0  0  0  0  0  0
   31.0324   14.3536   21.3946 H   0  0  0  0  0  0  0  0  0  0  0  0
   25.5037    2.7895   31.8013 H   0  0  0  0  0  0  0  0  0  0  0  0
   23.7032    4.4691   31.6708 H   0  0  0  0  0  0  0  0  0  0  0  0
   24.2381    6.8487   31.2181 H   0  0  0  0  0  0  0  0  0  0  0  0
   26.5914    7.5468   30.9048 H   0  0  0  0  0  0  0  0  0  0  0  0
   28.1134    3.0432   33.6508 H   0  0  0  0  0  0  0  0  0  0  0  0
   29.8632    1.3215   33.8010 H   0  0  0  0  0  0  0  0  0  0  0  0
   30.2106    1.3039   29.4992 H   0  0  0  0  0  0  0  0  0  0  0  0
   28.4550    3.0198   29.3520 H   0  0  0  0  0  0  0  0  0  0  0  0
  1  8  1  0
  8  9  1  0
  9 10  1  0
 10 11  1  0
 11 12  1  0
 12 13  1  0
 12 14  1  0
 14 15  2  0
 15 16  1  0
 16 17  1  0
 17 12  1  0
 16 18  2  0
 18 19  1  0
 19 20  2  0
 20 21  1  0
 21 17  2  0
 14 22  1  0
 22 23  2  0
 23 24  1  0
 24 25  2  0
 25 15  1  0
 13 26  2  0
 13 27  1  0
 27 28  1  0
  7 29  1  0
 29 30  1  0
 29 31  2  0
 30 32  1  0
 32 33  2  0
 33 34  1  0
 34 35  2  0
 35 36  1  0
 36 30  2  0
 32 37  1  0
 37 38  2  0
 38 39  1  0
 39 40  2  0
 40 41  1  0
 41 42  2  0
 42 37  1  0
 40 43  1  0
 28 44  1  0
  1  2  1  0
  2  3  1  0
 44 45  1  0
  3  4  1  0
 44 46  1  0
  4  5  1  0
 44 47  1  0
  5  6  1  0
 43 48  1  0
  6  1  1  0
 43 49  1  0
  4  7  1  0
 43 50  1  0
  2 51  1  0
  2 52  1  0
  3 53  1  0
  3 54  1  0
  4 55  1  0
  5 56  1  0
  5 57  1  0
  6 58  1  0
  6 59  1  0
  7 60  1  0
  8 61  1  0
  8 62  1  0
  9 63  1  0
  9 64  1  0
 10 65  1  0
 10 66  1  0
 11 67  1  0
 11 68  1  0
 18 69  1  0
 19 70  1  0
 20 71  1  0
 21 72  1  0
 22 73  1  0
 23 74  1  0
 24 75  1  0
 25 76  1  0
 27 77  1  0
 28 78  1  0
 28 79  1  0
 33 80  1  0
 34 81  1  0
 35 82  1  0
 36 83  1  0
 38 84  1  0
 39 85  1  0
 41 86  1  0
 42 87  1  0
M  END
> <Uni-Dock RESULT> 
ENERGY=   -4.233  LOWER_BOUND=    2.941  UPPER_BOUND=    4.111
INTER + INTRA:          -4.233
INTER:                  -4.233
INTRA:                   0.000
UNBOUND:                 0.000

$$$$

     RDKit          3D

 87 92  0  0  0  0  0  0  0  0999 V2000
   28.1204   15.3756   24.3468 N   0  0  0  0  0  0  0  0  0  0  0  0
   26.7030   15.2657   24.6733 C   0  0  0  0  0  0  0  0  0  0  0  0
   25.9419   14.2136   23.8659 C   0  0  0  0  0  0  0  0  0  0  0  0
   26.1892   14.3757   22.3655 C   0  0  0  0  0  0  0  0  0  0  0  0
   27.6911   14.3892   22.0726 C   0  0  0  0  0  0  0  0  0  0  0  0
   28.4005   15.4445   22.9147 C   0  0  0  0  0  0  0  0  0  0  0  0
   25.5190   13.3164   21.6202 N   0  0  0  0  0  0  0  0  0  0  0  0
   29.0514   14.5780   25.1436 C   0  0  0  0  0  0  0  0  0  0  0  0
   28.8096   13.0664   25.2089 C   0  0  0  0  0  0  0  0  0  0  0  0
   29.9705   12.2940   25.8517 C   0  0  0  0  0  0  0  0  0  0  0  0
   30.2009   12.6457   27.3325 C   0  0  0  0  0  0  0  0  0  0  0  0
   31.3094   11.8217   28.0440 C   0  0  0  0  0  0  0  0  0  0  0  0
   31.5118   12.3377   29.5054 C   0  0  0  0  0  0  0  0  0  0  0  0
   32.6408   11.8829   27.2692 C   0  0  0  0  0  0  0  0  0  0  0  0
   33.0594   10.5847   26.9092 C   0  0  0  0  0  0  0  0  0  0  0  0
   32.0825    9.6248   27.3745 C   0  0  0  0  0  0  0  0  0  0  0  0
   31.0276   10.3053   28.0255 C   0  0  0  0  0  0  0  0  0  0  0  0
   32.0569    8.2457   27.2345 C   0  0  0  0  0  0  0  0  0  0  0  0
   30.9630    7.5406   27.7417 C   0  0  0  0  0  0  0  0  0  0  0  0
   29.9069    8.2150   28.3708 C   0  0  0  0  0  0  0  0  0  0  0  0
   29.9287    9.6046   28.5112 C   0  0  0  0  0  0  0  0  0  0  0  0
   33.3923   13.0002   26.9256 C   0  0  0  0  0  0  0  0  0  0  0  0
   34.5755   12.8088   26.2107 C   0  0  0  0  0  0  0  0  0  0  0  0
   34.9924   11.5181   25.8488 C   0  0  0  0  0  0  0  0  0  0  0  0
   34.2332   10.3968   26.1966 C   0  0  0  0  0  0  0  0  0  0  0  0
   32.5670   12.8099   29.9259 O   0  0  0  0  0  0  0  0  0  0  0  0
   30.4083   12.2653   30.3391 N   0  0  0  0  0  0  0  0  0  0  0  0
   30.4598   12.8218   31.6938 C   0  0  0  0  0  0  0  0  0  0  0  0
   25.2771   13.4261   20.2659 C   0  0  0  0  0  0  0  0  0  0  0  0
   24.6709   12.2225   19.6433 C   0  0  0  0  0  0  0  0  0  0  0  0
   25.5468   14.4127   19.5953 O   0  0  0  0  0  0  0  0  0  0  0  0
   23.4842   12.3113   18.8906 C   0  0  0  0  0  0  0  0  0  0  0  0
   22.9849   11.1307   18.3090 C   0  0  0  0  0  0  0  0  0  0  0  0
   23.6443    9.9090   18.4693 C   0  0  0  0  0  0  0  0  0  0  0  0
   24.8200    9.8404   19.2112 C   0  0  0  0  0  0  0  0  0  0  0  0
   25.3358   10.9943   19.7979 C   0  0  0  0  0  0  0  0  0  0  0  0
   22.7464   13.5679   18.7020 C   0  0  0  0  0  0  0  0  0  0  0  0
   22.8168   14.2570   17.4820 C   0  0  0  0  0  0  0  0  0  0  0  0
   22.1287   15.4597   17.2982 C   0  0  0  0  0  0  0  0  0  0  0  0
   21.3440   15.9965   18.3282 C   0  0  0  0  0  0  0  0  0  0  0  0
   21.2700   15.3097   19.5489 C   0  0  0  0  0  0  0  0  0  0  0  0
   21.9604   14.1072   19.7316 C   0  0  0  0  0  0  0  0  0  0  0  0
   20.6312   17.3128   18.1441 C   0  0  0  0  0  0  0  0  0  0  0  0
   30.1015   14.3046   31.7939 C   0  0  0  0  0  0  0  0  0  0  0  0
   28.8322   14.5038   31.3573 F   0  0  0  0  0  0  0  0  0  0  0  0
   30.9103   15.0938   31.0628 F   0  0  0  0  0  0  0  0  0  0  0  0
   30.1573   14.7265   33.0783 F   0  0  0  0  0  0  0  0  0  0  0  0
   21.3677   18.3734   18.5751 F   0  0  0  0  0  0  0  0  0  0  0  0
   20.3204   17.5769   16.8438 F   0  0  0  0  0  0  0  0  0  0  0  0
   19.4515   17.3794   18.8258 F   0  0  0  0  0  0  0  0  0  0  0  0
   26.5609   15.0877   25.7469 H   0  0  0  0  0  0  0  0  0  0  0  0
   26.2406   16.2431   24.4787 H   0  0  0  0  0  0  0  0  0  0  0  0
   26.2264   13.2040   24.1859 H   0  0  0  0  0  0  0  0  0  0  0  0
   24.8676   14.3047   24.0733 H   0  0  0  0  0  0  0  0  0  0  0  0
   25.7569   15.3298   22.0343 H   0  0  0  0  0  0  0  0  0  0  0  0
   28.1239   13.3991   22.2513 H   0  0  0  0  0  0  0  0  0  0  0  0
   27.8666   14.6051   21.0116 H   0  0  0  0  0  0  0  0  0  0  0  0
   29.4795   15.4087   22.7189 H   0  0  0  0  0  0  0  0  0  0  0  0
   28.0796   16.4340   22.5620 H   0  0  0  0  0  0  0  0  0  0  0  0
   25.3049   12.4464   22.0886 H   0  0  0  0  0  0  0  0  0  0  0  0
   30.0771   14.7702   24.8029 H   0  0  0  0  0  0  0  0  0  0  0  0
   29.0189   14.9775   26.1652 H   0  0  0  0  0  0  0  0  0  0  0  0
   27.8907   12.8565   25.7686 H   0  0  0  0  0  0  0  0  0  0  0  0
   28.6761   12.6624   24.2019 H   0  0  0  0  0  0  0  0  0  0  0  0
   29.7462   11.2247   25.7575 H   0  0  0  0  0  0  0  0  0  0  0  0
   30.8793   12.4806   25.2681 H   0  0  0  0  0  0  0  0  0  0  0  0
   30.4549   13.7105   27.4143 H   0  0  0  0  0  0  0  0  0  0  0  0
   29.2469   12.5210   27.8592 H   0  0  0  0  0  0  0  0  0  0  0  0
   32.8637    7.7160   26.7393 H   0  0  0  0  0  0  0  0  0  0  0  0
   30.9275    6.4584   27.6424 H   0  0  0  0  0  0  0  0  0  0  0  0
   29.0610    7.6457   28.7504 H   0  0  0  0  0  0  0  0  0  0  0  0
   29.0936   10.1033   28.9883 H   0  0  0  0  0  0  0  0  0  0  0  0
   33.0843   13.9990   27.2204 H   0  0  0  0  0  0  0  0  0  0  0  0
   35.1856   13.6670   25.9389 H   0  0  0  0  0  0  0  0  0  0  0  0
   35.9205   11.3900   25.2965 H   0  0  0  0  0  0  0  0  0  0  0  0
   34.5659    9.4048   25.9097 H   0  0  0  0  0  0  0  0  0  0  0  0
   29.4992   12.0616   29.9487 H   0  0  0  0  0  0  0  0  0  0  0  0
   31.4602   12.6603   32.1087 H   0  0  0  0  0  0  0  0  0  0  0  0
   29.7552   12.2381   32.2944 H   0  0  0  0  0  0  0  0  0  0  0  0
   22.0674   11.1619   17.7228 H   0  0  0  0  0  0  0  0  0  0  0  0
   23.2407    9.0117   18.0056 H   0  0  0  0  0  0  0  0  0  0  0  0
   25.3401    8.8920   19.3215 H   0  0  0  0  0  0  0  0  0  0  0  0
   26.2709   10.9414   20.3497 H   0  0  0  0  0  0  0  0  0  0  0  0
   23.4335   13.8686   16.6727 H   0  0  0  0  0  0  0  0  0  0  0  0
   22.2203   15.9829   16.3470 H   0  0  0  0  0  0  0  0  0  0  0  0
   20.6798   15.7149   20.3696 H   0  0  0  0  0  0  0  0  0  0  0  0
   21.8878   13.5969   20.6894 H   0  0  0  0  0  0  0  0  0  0  0  0
  1  8  1  0
  8  9  1  0
  9 10  1  0
 10 11  1  0
 11 12  1  0
 12 13  1  0
 12 14  1  0
 14 15  2  0
 15 16  1  0
 16 17  1  0
 17 12  1  0
 16 18  2  0
 18 19  1  0
 19 20  2  0
 20 21  1  0
 21 17  2  0
 14 22  1  0
 22 23  2  0
 23 24  1  0
 24 25  2  0
 25 15  1  0
 13 26  2  0
 13 27  1  0
 27 28  1  0
  7 29  1  0
 29 30  1  0
 29 31  2  0
 30 32  1  0
 32 33  2  0
 33 34  1  0
 34 35  2  0
 35 36  1  0
 36 30  2  0
 32 37  1  0
 37 38  2  0
 38 39  1  0
 39 40  2  0
 40 41  1  0
 41 42  2  0
 42 37  1  0
 40 43  1  0
 28 44  1  0
  1  2  1  0
  2  3  1  0
 44 45  1  0
  3  4  1  0
 44 46  1  0
  4  5  1  0
 44 47  1  0
  5  6  1  0
 43 48  1  0
  6  1  1  0
 43 49  1  0
  4  7  1  0
 43 50  1  0
  2 51  1  0
  2 52  1  0
  3 53  1  0
  3 54  1  0
  4 55  1  0
  5 56  1  0
  5 57  1  0
  6 58  1  0
  6 59  1  0
  7 60  1  0
  8 61  1  0
  8 62  1  0
  9 63  1  0
  9 64  1  0
 10 65  1  0
 10 66  1  0
 11 67  1  0
 11 68  1  0
 18 69  1  0
 19 70  1  0
 20 71  1  0
 21 72  1  0
 22 73  1  0
 23 74  1  0
 24 75  1  0
 25 76  1  0
 27 77  1  0
 28 78  1  0
 28 79  1  0
 33 80  1  0
 34 81  1  0
 35 82  1  0
 36 83  1  0
 38 84  1  0
 39 85  1  0
 41 86  1  0
 42 87  1  0
M  END
> <Uni-Dock RESULT> 
ENERGY=   -3.996  LOWER_BOUND=    5.767  UPPER_BOUND=   13.631
INTER + INTRA:          -3.996
INTER:                  -3.996
INTRA:                   0.000
UNBOUND:                 0.000

$$$$

     RDKit          3D

 87 92  0  0  0  0  0  0  0  0999 V2000
   32.4605    9.8224   29.8993 N   0  0  0  0  0  0  0  0  0  0  0  0
   32.1829    8.8525   28.8458 C   0  0  0  0  0  0  0  0  0  0  0  0
   30.7799    8.2462   28.8902 C   0  0  0  0  0  0  0  0  0  0  0  0
   30.4469    7.7123   30.2840 C   0  0  0  0  0  0  0  0  0  0  0  0
   30.6659    8.8012   31.3366 C   0  0  0  0  0  0  0  0  0  0  0  0
   32.0734    9.3799   31.2367 C   0  0  0  0  0  0  0  0  0  0  0  0
   29.0782    7.2108   30.3250 N   0  0  0  0  0  0  0  0  0  0  0  0
   32.2082   11.2295   29.5927 C   0  0  0  0  0  0  0  0  0  0  0  0
   30.8029   11.6068   29.1124 C   0  0  0  0  0  0  0  0  0  0  0  0
   30.5665   13.1229   29.0607 C   0  0  0  0  0  0  0  0  0  0  0  0
   31.4599   13.8526   28.0414 C   0  0  0  0  0  0  0  0  0  0  0  0
   31.1900   15.3756   27.8952 C   0  0  0  0  0  0  0  0  0  0  0  0
   32.2205   16.0143   26.9088 C   0  0  0  0  0  0  0  0  0  0  0  0
   31.2464   16.0906   29.2598 C   0  0  0  0  0  0  0  0  0  0  0  0
   30.0215   16.7379   29.5258 C   0  0  0  0  0  0  0  0  0  0  0  0
   29.1092   16.4967   28.4296 C   0  0  0  0  0  0  0  0  0  0  0  0
   29.7423   15.6840   27.4609 C   0  0  0  0  0  0  0  0  0  0  0  0
   27.7966   16.9099   28.2600 C   0  0  0  0  0  0  0  0  0  0  0  0
   27.1073   16.5001   27.1163 C   0  0  0  0  0  0  0  0  0  0  0  0
   27.7269   15.6788   26.1637 C   0  0  0  0  0  0  0  0  0  0  0  0
   29.0485   15.2590   26.3330 C   0  0  0  0  0  0  0  0  0  0  0  0
   32.2988   16.1461   30.1657 C   0  0  0  0  0  0  0  0  0  0  0  0
   32.1154   16.8582   31.3518 C   0  0  0  0  0  0  0  0  0  0  0  0
   30.8963   17.5005   31.6199 C   0  0  0  0  0  0  0  0  0  0  0  0
   29.8401   17.4421   30.7057 C   0  0  0  0  0  0  0  0  0  0  0  0
   33.0184   16.8952   27.2263 O   0  0  0  0  0  0  0  0  0  0  0  0
   32.2219   15.5161   25.6166 N   0  0  0  0  0  0  0  0  0  0  0  0
   33.2204   15.9689   24.6442 C   0  0  0  0  0  0  0  0  0  0  0  0
   28.6480    6.3626   31.3251 C   0  0  0  0  0  0  0  0  0  0  0  0
   27.2043    6.0208   31.2718 C   0  0  0  0  0  0  0  0  0  0  0  0
   29.3656    5.9243   32.2132 O   0  0  0  0  0  0  0  0  0  0  0  0
   26.7730    4.6803   31.2655 C   0  0  0  0  0  0  0  0  0  0  0  0
   25.3870    4.4360   31.2409 C   0  0  0  0  0  0  0  0  0  0  0  0
   24.4661    5.4870   31.2258 C   0  0  0  0  0  0  0  0  0  0  0  0
   24.9097    6.8063   31.2390 C   0  0  0  0  0  0  0  0  0  0  0  0
   26.2766    7.0760   31.2631 C   0  0  0  0  0  0  0  0  0  0  0  0
   27.6995    3.5398   31.2684 C   0  0  0  0  0  0  0  0  0  0  0  0
   27.9099    2.7982   32.4405 C   0  0  0  0  0  0  0  0  0  0  0  0
   28.7991    1.7199   32.4557 C   0  0  0  0  0  0  0  0  0  0  0  0
   29.4916    1.3508   31.2942 C   0  0  0  0  0  0  0  0  0  0  0  0
   29.2828    2.0890   30.1200 C   0  0  0  0  0  0  0  0  0  0  0  0
   28.3938    3.1686   30.1070 C   0  0  0  0  0  0  0  0  0  0  0  0
   30.4792    0.2112   31.3185 C   0  0  0  0  0  0  0  0  0  0  0  0
   34.5339   15.1870   24.6598 C   0  0  0  0  0  0  0  0  0  0  0  0
   34.2983   13.8820   24.3716 F   0  0  0  0  0  0  0  0  0  0  0  0
   35.1616   15.2326   25.8495 F   0  0  0  0  0  0  0  0  0  0  0  0
   35.3856   15.6601   23.7208 F   0  0  0  0  0  0  0  0  0  0  0  0
   31.7515    0.6245   31.5709 F   0  0  0  0  0  0  0  0  0  0  0  0
   30.1947   -0.7246   32.2674 F   0  0  0  0  0  0  0  0  0  0  0  0
   30.5377   -0.4680   30.1370 F   0  0  0  0  0  0  0  0  0  0  0  0
   32.3720    9.2852   27.8552 H   0  0  0  0  0  0  0  0  0  0  0  0
   32.9096    8.0348   28.9474 H   0  0  0  0  0  0  0  0  0  0  0  0
   30.0316    8.9868   28.5835 H   0  0  0  0  0  0  0  0  0  0  0  0
   30.7144    7.4300   28.1587 H   0  0  0  0  0  0  0  0  0  0  0  0
   31.1101    6.8659   30.5090 H   0  0  0  0  0  0  0  0  0  0  0  0
   29.9159    9.5921   31.2296 H   0  0  0  0  0  0  0  0  0  0  0  0
   30.5229    8.3877   32.3425 H   0  0  0  0  0  0  0  0  0  0  0  0
   32.1945   10.1851   31.9721 H   0  0  0  0  0  0  0  0  0  0  0  0
   32.7843    8.6020   31.5464 H   0  0  0  0  0  0  0  0  0  0  0  0
   28.4065    7.5612   29.6554 H   0  0  0  0  0  0  0  0  0  0  0  0
   32.4748   11.8437   30.4626 H   0  0  0  0  0  0  0  0  0  0  0  0
   32.9280   11.5201   28.8169 H   0  0  0  0  0  0  0  0  0  0  0  0
   30.6200   11.1850   28.1172 H   0  0  0  0  0  0  0  0  0  0  0  0
   30.0498   11.1889   29.7857 H   0  0  0  0  0  0  0  0  0  0  0  0
   29.5117   13.2829   28.8072 H   0  0  0  0  0  0  0  0  0  0  0  0
   30.7177   13.5340   30.0655 H   0  0  0  0  0  0  0  0  0  0  0  0
   32.5124   13.7129   28.3202 H   0  0  0  0  0  0  0  0  0  0  0  0
   31.3357   13.3566   27.0711 H   0  0  0  0  0  0  0  0  0  0  0  0
   27.3048   17.5359   28.9969 H   0  0  0  0  0  0  0  0  0  0  0  0
   26.0779   16.8165   26.9663 H   0  0  0  0  0  0  0  0  0  0  0  0
   27.1676   15.3649   25.2849 H   0  0  0  0  0  0  0  0  0  0  0  0
   29.4997   14.6128   25.5896 H   0  0  0  0  0  0  0  0  0  0  0  0
   33.2504   15.6676   29.9539 H   0  0  0  0  0  0  0  0  0  0  0  0
   32.9277   16.9240   32.0718 H   0  0  0  0  0  0  0  0  0  0  0  0
   30.7755   18.0550   32.5478 H   0  0  0  0  0  0  0  0  0  0  0  0
   28.9026   17.9419   30.9256 H   0  0  0  0  0  0  0  0  0  0  0  0
   31.7098   14.6712   25.4060 H   0  0  0  0  0  0  0  0  0  0  0  0
   33.4271   17.0310   24.8124 H   0  0  0  0  0  0  0  0  0  0  0  0
   32.7554   15.8753   23.6579 H   0  0  0  0  0  0  0  0  0  0  0  0
   25.0179    3.4112   31.2322 H   0  0  0  0  0  0  0  0  0  0  0  0
   23.4000    5.2718   31.2118 H   0  0  0  0  0  0  0  0  0  0  0  0
   24.1916    7.6226   31.2433 H   0  0  0  0  0  0  0  0  0  0  0  0
   26.6174    8.1075   31.3053 H   0  0  0  0  0  0  0  0  0  0  0  0
   27.3963    3.0764   33.3597 H   0  0  0  0  0  0  0  0  0  0  0  0
   28.9579    1.1766   33.3866 H   0  0  0  0  0  0  0  0  0  0  0  0
   29.8213    1.8315   29.2090 H   0  0  0  0  0  0  0  0  0  0  0  0
   28.2531    3.7257   29.1834 H   0  0  0  0  0  0  0  0  0  0  0  0
  1  8  1  0
  8  9  1  0
  9 10  1  0
 10 11  1  0
 11 12  1  0
 12 13  1  0
 12 14  1  0
 14 15  2  0
 15 16  1  0
 16 17  1  0
 17 12  1  0
 16 18  2  0
 18 19  1  0
 19 20  2  0
 20 21  1  0
 21 17  2  0
 14 22  1  0
 22 23  2  0
 23 24  1  0
 24 25  2  0
 25 15  1  0
 13 26  2  0
 13 27  1  0
 27 28  1  0
  7 29  1  0
 29 30  1  0
 29 31  2  0
 30 32  1  0
 32 33  2  0
 33 34  1  0
 34 35  2  0
 35 36  1  0
 36 30  2  0
 32 37  1  0
 37 38  2  0
 38 39  1  0
 39 40  2  0
 40 41  1  0
 41 42  2  0
 42 37  1  0
 40 43  1  0
 28 44  1  0
  1  2  1  0
  2  3  1  0
 44 45  1  0
  3  4  1  0
 44 46  1  0
  4  5  1  0
 44 47  1  0
  5  6  1  0
 43 48  1  0
  6  1  1  0
 43 49  1  0
  4  7  1  0
 43 50  1  0
  2 51  1  0
  2 52  1  0
  3 53  1  0
  3 54  1  0
  4 55  1  0
  5 56  1  0
  5 57  1  0
  6 58  1  0
  6 59  1  0
  7 60  1  0
  8 61  1  0
  8 62  1  0
  9 63  1  0
  9 64  1  0
 10 65  1  0
 10 66  1  0
 11 67  1  0
 11 68  1  0
 18 69  1  0
 19 70  1  0
 20 71  1  0
 21 72  1  0
 22 73  1  0
 23 74  1  0
 24 75  1  0
 25 76  1  0
 27 77  1  0
 28 78  1  0
 28 79  1  0
 33 80  1  0
 34 81  1  0
 35 82  1  0
 36 83  1  0
 38 84  1  0
 39 85  1  0
 41 86  1  0
 42 87  1  0
M  END
> <Uni-Dock RESULT> 
ENERGY=   -3.873  LOWER_BOUND=    3.655  UPPER_BOUND=    5.140
INTER + INTRA:          -3.873
INTER:                  -3.873
INTRA:                   0.000
UNBOUND:                 0.000

$$$$

     RDKit          3D

 87 92  0  0  0  0  0  0  0  0999 V2000
   33.7631   13.5236   25.6585 N   0  0  0  0  0  0  0  0  0  0  0  0
   34.9080   12.6199   25.6536 C   0  0  0  0  0  0  0  0  0  0  0  0
   34.6520   11.2622   26.3088 C   0  0  0  0  0  0  0  0  0  0  0  0
   34.0340   11.4213   27.6986 C   0  0  0  0  0  0  0  0  0  0  0  0
   32.7836   12.3006   27.6268 C   0  0  0  0  0  0  0  0  0  0  0  0
   33.0930   13.6329   26.9520 C   0  0  0  0  0  0  0  0  0  0  0  0
   33.7255   10.1167   28.2725 N   0  0  0  0  0  0  0  0  0  0  0  0
   32.8906   13.4998   24.4855 C   0  0  0  0  0  0  0  0  0  0  0  0
   32.2869   12.1506   24.0816 C   0  0  0  0  0  0  0  0  0  0  0  0
   31.1981   12.2713   23.0060 C   0  0  0  0  0  0  0  0  0  0  0  0
   31.7175   12.8057   21.6591 C   0  0  0  0  0  0  0  0  0  0  0  0
   30.6648   12.8593   20.5177 C   0  0  0  0  0  0  0  0  0  0  0  0
   31.2875   13.5072   19.2389 C   0  0  0  0  0  0  0  0  0  0  0  0
   29.4061   13.6379   20.9492 C   0  0  0  0  0  0  0  0  0  0  0  0
   28.2626   12.8183   20.8461 C   0  0  0  0  0  0  0  0  0  0  0  0
   28.6590   11.5061   20.3845 C   0  0  0  0  0  0  0  0  0  0  0  0
   30.0607   11.4760   20.2003 C   0  0  0  0  0  0  0  0  0  0  0  0
   27.8896   10.3752   20.1575 C   0  0  0  0  0  0  0  0  0  0  0  0
   28.5275    9.2010   19.7512 C   0  0  0  0  0  0  0  0  0  0  0  0
   29.9193    9.1635   19.5861 C   0  0  0  0  0  0  0  0  0  0  0  0
   30.6974   10.3006   19.8164 C   0  0  0  0  0  0  0  0  0  0  0  0
   29.3096   14.9520   21.3909 C   0  0  0  0  0  0  0  0  0  0  0  0
   28.0499   15.4450   21.7343 C   0  0  0  0  0  0  0  0  0  0  0  0
   26.9111   14.6303   21.6353 C   0  0  0  0  0  0  0  0  0  0  0  0
   27.0128   13.3087   21.1905 C   0  0  0  0  0  0  0  0  0  0  0  0
   30.8725   14.5447   18.7243 O   0  0  0  0  0  0  0  0  0  0  0  0
   32.3847   12.8595   18.6960 N   0  0  0  0  0  0  0  0  0  0  0  0
   33.1087   13.4420   17.5629 C   0  0  0  0  0  0  0  0  0  0  0  0
   33.5062    9.9549   29.6254 C   0  0  0  0  0  0  0  0  0  0  0  0
   33.1129    8.5822   30.0316 C   0  0  0  0  0  0  0  0  0  0  0  0
   33.5985   10.8527   30.4508 O   0  0  0  0  0  0  0  0  0  0  0  0
   33.8166    7.8900   31.0358 C   0  0  0  0  0  0  0  0  0  0  0  0
   33.3674    6.6025   31.3847 C   0  0  0  0  0  0  0  0  0  0  0  0
   32.2579    6.0279   30.7588 C   0  0  0  0  0  0  0  0  0  0  0  0
   31.5697    6.7289   29.7726 C   0  0  0  0  0  0  0  0  0  0  0  0
   31.9937    8.0052   29.4080 C   0  0  0  0  0  0  0  0  0  0  0  0
   34.9956    8.4440   31.7157 C   0  0  0  0  0  0  0  0  0  0  0  0
   34.8932    8.9422   33.0231 C   0  0  0  0  0  0  0  0  0  0  0  0
   36.0065    9.4827   33.6727 C   0  0  0  0  0  0  0  0  0  0  0  0
   37.2529    9.5276   33.0328 C   0  0  0  0  0  0  0  0  0  0  0  0
   37.3596    9.0291   31.7261 C   0  0  0  0  0  0  0  0  0  0  0  0
   36.2442    8.4900   31.0771 C   0  0  0  0  0  0  0  0  0  0  0  0
   38.4462   10.1444   33.7185 C   0  0  0  0  0  0  0  0  0  0  0  0
   34.2159   14.4249   17.9440 C   0  0  0  0  0  0  0  0  0  0  0  0
   35.1511   13.7968   18.7005 F   0  0  0  0  0  0  0  0  0  0  0  0
   33.7661   15.4798   18.6484 F   0  0  0  0  0  0  0  0  0  0  0  0
   34.8403   14.8966   16.8401 F   0  0  0  0  0  0  0  0  0  0  0  0
   38.5965   11.4649   33.4236 F   0  0  0  0  0  0  0  0  0  0  0  0
   38.3815   10.0696   35.0776 F   0  0  0  0  0  0  0  0  0  0  0  0
   39.6247    9.5509   33.3725 F   0  0  0  0  0  0  0  0  0  0  0  0
   35.2902   12.4771   24.6348 H   0  0  0  0  0  0  0  0  0  0  0  0
   35.7227   13.1130   26.2014 H   0  0  0  0  0  0  0  0  0  0  0  0
   34.0002   10.6474   25.6766 H   0  0  0  0  0  0  0  0  0  0  0  0
   35.5999   10.7138   26.3887 H   0  0  0  0  0  0  0  0  0  0  0  0
   34.7662   11.9030   28.3609 H   0  0  0  0  0  0  0  0  0  0  0  0
   31.9795   11.7784   27.0974 H   0  0  0  0  0  0  0  0  0  0  0  0
   32.4004   12.4946   28.6361 H   0  0  0  0  0  0  0  0  0  0  0  0
   32.1753   14.2293   26.8748 H   0  0  0  0  0  0  0  0  0  0  0  0
   33.7509   14.2074   27.6180 H   0  0  0  0  0  0  0  0  0  0  0  0
   33.5836    9.3294   27.6543 H   0  0  0  0  0  0  0  0  0  0  0  0
   32.0868   14.2358   24.6164 H   0  0  0  0  0  0  0  0  0  0  0  0
   33.4808   13.8805   23.6422 H   0  0  0  0  0  0  0  0  0  0  0  0
   33.0741   11.4809   23.7162 H   0  0  0  0  0  0  0  0  0  0  0  0
   31.8273   11.6688   24.9487 H   0  0  0  0  0  0  0  0  0  0  0  0
   30.7640   11.2742   22.8641 H   0  0  0  0  0  0  0  0  0  0  0  0
   30.3980   12.9144   23.3900 H   0  0  0  0  0  0  0  0  0  0  0  0
   32.1221   13.8158   21.8045 H   0  0  0  0  0  0  0  0  0  0  0  0
   32.5662   12.1809   21.3551 H   0  0  0  0  0  0  0  0  0  0  0  0
   26.8135   10.3910   20.2935 H   0  0  0  0  0  0  0  0  0  0  0  0
   27.9392    8.3053   19.5668 H   0  0  0  0  0  0  0  0  0  0  0  0
   30.3954    8.2352   19.2774 H   0  0  0  0  0  0  0  0  0  0  0  0
   31.7725   10.2417   19.6957 H   0  0  0  0  0  0  0  0  0  0  0  0
   30.1848   15.5923   21.4502 H   0  0  0  0  0  0  0  0  0  0  0  0
   27.9478   16.4731   22.0733 H   0  0  0  0  0  0  0  0  0  0  0  0
   25.9377   15.0352   21.9026 H   0  0  0  0  0  0  0  0  0  0  0  0
   26.1249   12.6891   21.1197 H   0  0  0  0  0  0  0  0  0  0  0  0
   32.8417   12.1262   19.2193 H   0  0  0  0  0  0  0  0  0  0  0  0
   32.3936   13.9389   16.8991 H   0  0  0  0  0  0  0  0  0  0  0  0
   33.5440   12.6033   17.0106 H   0  0  0  0  0  0  0  0  0  0  0  0
   33.8900    6.0370   32.1552 H   0  0  0  0  0  0  0  0  0  0  0  0
   31.9276    5.0333   31.0499 H   0  0  0  0  0  0  0  0  0  0  0  0
   30.6972    6.2866   29.2980 H   0  0  0  0  0  0  0  0  0  0  0  0
   31.4341    8.5611   28.6599 H   0  0  0  0  0  0  0  0  0  0  0  0
   33.9317    8.9337   33.5346 H   0  0  0  0  0  0  0  0  0  0  0  0
   35.8909    9.8816   34.6799 H   0  0  0  0  0  0  0  0  0  0  0  0
   38.3136    9.0677   31.2023 H   0  0  0  0  0  0  0  0  0  0  0  0
   36.3545    8.1132   30.0627 H   0  0  0  0  0  0  0  0  0  0  0  0
  1  8  1  0
  8  9  1  0
  9 10  1  0
 10 11  1  0
 11 12  1  0
 12 13  1  0
 12 14  1  0
 14 15  2  0
 15 16  1  0
 16 17  1  0
 17 12  1  0
 16 18  2  0
 18 19  1  0
 19 20  2  0
 20 21  1  0
 21 17  2  0
 14 22  1  0
 22 23  2  0
 23 24  1  0
 24 25  2  0
 25 15  1  0
 13 26  2  0
 13 27  1  0
 27 28  1  0
  7 29  1  0
 29 30  1  0
 29 31  2  0
 30 32  1  0
 32 33  2  0
 33 34  1  0
 34 35  2  0
 35 36  1  0
 36 30  2  0
 32 37  1  0
 37 38  2  0
 38 39  1  0
 39 40  2  0
 40 41  1  0
 41 42  2  0
 42 37  1  0
 40 43  1  0
 28 44  1  0
  1  2  1  0
  2  3  1  0
 44 45  1  0
  3  4  1  0
 44 46  1  0
  4  5  1  0
 44 47  1  0
  5  6  1  0
 43 48  1  0
  6  1  1  0
 43 49  1  0
  4  7  1  0
 43 50  1  0
  2 51  1  0
  2 52  1  0
  3 53  1  0
  3 54  1  0
  4 55  1  0
  5 56  1  0
  5 57  1  0
  6 58  1  0
  6 59  1  0
  7 60  1  0
  8 61  1  0
  8 62  1  0
  9 63  1  0
  9 64  1  0
 10 65  1  0
 10 66  1  0
 11 67  1  0
 11 68  1  0
 18 69  1  0
 19 70  1  0
 20 71  1  0
 21 72  1  0
 22 73  1  0
 23 74  1  0
 24 75  1  0
 25 76  1  0
 27 77  1  0
 28 78  1  0
 28 79  1  0
 33 80  1  0
 34 81  1  0
 35 82  1  0
 36 83  1  0
 38 84  1  0
 39 85  1  0
 41 86  1  0
 42 87  1  0
M  END
> <Uni-Dock RESULT> 
ENERGY=   -3.858  LOWER_BOUND=    3.744  UPPER_BOUND=    4.922
INTER + INTRA:          -3.858
INTER:                  -3.858
INTRA:                   0.000
UNBOUND:                 0.000

$$$$

     RDKit          3D

 87 92  0  0  0  0  0  0  0  0999 V2000
   32.1828   10.0230   30.8596 N   0  0  0  0  0  0  0  0  0  0  0  0
   32.0104    9.1478   29.7055 C   0  0  0  0  0  0  0  0  0  0  0  0
   30.6215    8.5202   29.5823 C   0  0  0  0  0  0  0  0  0  0  0  0
   30.1904    7.8587   30.8920 C   0  0  0  0  0  0  0  0  0  0  0  0
   30.3019    8.8516   32.0510 C   0  0  0  0  0  0  0  0  0  0  0  0
   31.7003    9.4567   32.1169 C   0  0  0  0  0  0  0  0  0  0  0  0
   28.8336    7.3363   30.7775 N   0  0  0  0  0  0  0  0  0  0  0  0
   31.9258   11.4483   30.6591 C   0  0  0  0  0  0  0  0  0  0  0  0
   30.5553   11.8473   30.1019 C   0  0  0  0  0  0  0  0  0  0  0  0
   30.2916   13.3584   30.1655 C   0  0  0  0  0  0  0  0  0  0  0  0
   31.2473   14.1892   29.2903 C   0  0  0  0  0  0  0  0  0  0  0  0
   30.9576   15.7153   29.2579 C   0  0  0  0  0  0  0  0  0  0  0  0
   32.0493   16.4545   28.4186 C   0  0  0  0  0  0  0  0  0  0  0  0
   30.8902   16.3056   30.6805 C   0  0  0  0  0  0  0  0  0  0  0  0
   29.6346   16.9090   30.9026 C   0  0  0  0  0  0  0  0  0  0  0  0
   28.8175   16.7543   29.7192 C   0  0  0  0  0  0  0  0  0  0  0  0
   29.5427   16.0410   28.7369 C   0  0  0  0  0  0  0  0  0  0  0  0
   27.5141   17.1626   29.4810 C   0  0  0  0  0  0  0  0  0  0  0  0
   26.9266   16.8475   28.2536 C   0  0  0  0  0  0  0  0  0  0  0  0
   27.6372   16.1239   27.2854 C   0  0  0  0  0  0  0  0  0  0  0  0
   28.9498   15.7092   27.5234 C   0  0  0  0  0  0  0  0  0  0  0  0
   31.8660   16.2943   31.6699 C   0  0  0  0  0  0  0  0  0  0  0  0
   31.5739   16.8943   32.8956 C   0  0  0  0  0  0  0  0  0  0  0  0
   30.3241   17.4927   33.1199 C   0  0  0  0  0  0  0  0  0  0  0  0
   29.3452   17.5017   32.1216 C   0  0  0  0  0  0  0  0  0  0  0  0
   32.8006   17.3144   28.8762 O   0  0  0  0  0  0  0  0  0  0  0  0
   32.1639   16.0744   27.0918 N   0  0  0  0  0  0  0  0  0  0  0  0
   33.2265   16.6268   26.2473 C   0  0  0  0  0  0  0  0  0  0  0  0
   28.3436    6.3957   31.6606 C   0  0  0  0  0  0  0  0  0  0  0  0
   26.9163    6.0397   31.4606 C   0  0  0  0  0  0  0  0  0  0  0  0
   28.9976    5.8896   32.5616 O   0  0  0  0  0  0  0  0  0  0  0  0
   26.5154    4.6993   31.3010 C   0  0  0  0  0  0  0  0  0  0  0  0
   25.1413    4.4386   31.1427 C   0  0  0  0  0  0  0  0  0  0  0  0
   24.2023    5.4737   31.1461 C   0  0  0  0  0  0  0  0  0  0  0  0
   24.6153    6.7926   31.3117 C   0  0  0  0  0  0  0  0  0  0  0  0
   25.9700    7.0783   31.4701 C   0  0  0  0  0  0  0  0  0  0  0  0
   27.4629    3.5763   31.2780 C   0  0  0  0  0  0  0  0  0  0  0  0
   27.5953    2.7355   32.3932 C   0  0  0  0  0  0  0  0  0  0  0  0
   28.5032    1.6728   32.3849 C   0  0  0  0  0  0  0  0  0  0  0  0
   29.2934    1.4193   31.2552 C   0  0  0  0  0  0  0  0  0  0  0  0
   29.1629    2.2570   30.1378 C   0  0  0  0  0  0  0  0  0  0  0  0
   28.2549    3.3207   30.1484 C   0  0  0  0  0  0  0  0  0  0  0  0
   30.3000    0.2962   31.2586 C   0  0  0  0  0  0  0  0  0  0  0  0
   34.5510   15.8652   26.2999 C   0  0  0  0  0  0  0  0  0  0  0  0
   34.3669   14.5882   25.8794 F   0  0  0  0  0  0  0  0  0  0  0  0
   35.0812   15.8126   27.5359 F   0  0  0  0  0  0  0  0  0  0  0  0
   35.4643   16.4327   25.4785 F   0  0  0  0  0  0  0  0  0  0  0  0
   31.5391    0.7031   31.6487 F   0  0  0  0  0  0  0  0  0  0  0  0
   29.9610   -0.7250   32.0949 F   0  0  0  0  0  0  0  0  0  0  0  0
   30.4665   -0.2733   30.0303 F   0  0  0  0  0  0  0  0  0  0  0  0
   32.2683    9.6704   28.7755 H   0  0  0  0  0  0  0  0  0  0  0  0
   32.7440    8.3346   29.7929 H   0  0  0  0  0  0  0  0  0  0  0  0
   29.8843    9.2748   29.2828 H   0  0  0  0  0  0  0  0  0  0  0  0
   30.6317    7.7723   28.7787 H   0  0  0  0  0  0  0  0  0  0  0  0
   30.8515    7.0050   31.0943 H   0  0  0  0  0  0  0  0  0  0  0  0
   29.5461    9.6383   31.9539 H   0  0  0  0  0  0  0  0  0  0  0  0
   30.0883    8.3475   33.0015 H   0  0  0  0  0  0  0  0  0  0  0  0
   31.7454   10.1942   32.9279 H   0  0  0  0  0  0  0  0  0  0  0  0
   32.4007    8.6642   32.4131 H   0  0  0  0  0  0  0  0  0  0  0  0
   28.2100    7.7359   30.0893 H   0  0  0  0  0  0  0  0  0  0  0  0
   32.1093   11.9855   31.5987 H   0  0  0  0  0  0  0  0  0  0  0  0
   32.6985   11.8174   29.9729 H   0  0  0  0  0  0  0  0  0  0  0  0
   30.4610   11.5140   29.0618 H   0  0  0  0  0  0  0  0  0  0  0  0
   29.7602   11.3600   30.6724 H   0  0  0  0  0  0  0  0  0  0  0  0
   29.2570   13.5256   29.8425 H   0  0  0  0  0  0  0  0  0  0  0  0
   30.3537   13.6797   31.2116 H   0  0  0  0  0  0  0  0  0  0  0  0
   32.2772   14.0399   29.6400 H   0  0  0  0  0  0  0  0  0  0  0  0
   31.2112   13.7807   28.2731 H   0  0  0  0  0  0  0  0  0  0  0  0
   26.9521   17.7129   30.2281 H   0  0  0  0  0  0  0  0  0  0  0  0
   25.9058   17.1616   28.0493 H   0  0  0  0  0  0  0  0  0  0  0  0
   27.1562   15.8824   26.3399 H   0  0  0  0  0  0  0  0  0  0  0  0
   29.4722   15.1389   26.7647 H   0  0  0  0  0  0  0  0  0  0  0  0
   32.8414   15.8502   31.4945 H   0  0  0  0  0  0  0  0  0  0  0  0
   32.3249   16.9067   33.6820 H   0  0  0  0  0  0  0  0  0  0  0  0
   30.1182   17.9598   34.0803 H   0  0  0  0  0  0  0  0  0  0  0  0
   28.3828   17.9665   32.3082 H   0  0  0  0  0  0  0  0  0  0  0  0
   31.6882   15.2447   26.7665 H   0  0  0  0  0  0  0  0  0  0  0  0
   33.3966   17.6722   26.5248 H   0  0  0  0  0  0  0  0  0  0  0  0
   32.8434   16.6156   25.2221 H   0  0  0  0  0  0  0  0  0  0  0  0
   24.7959    3.4137   31.0136 H   0  0  0  0  0  0  0  0  0  0  0  0
   23.1455    5.2456   31.0269 H   0  0  0  0  0  0  0  0  0  0  0  0
   23.8819    7.5950   31.3300 H   0  0  0  0  0  0  0  0  0  0  0  0
   26.2843    8.1066   31.6308 H   0  0  0  0  0  0  0  0  0  0  0  0
   27.0045    2.9227   33.2888 H   0  0  0  0  0  0  0  0  0  0  0  0
   28.5991    1.0504   33.2739 H   0  0  0  0  0  0  0  0  0  0  0  0
   29.7773    2.0900   29.2543 H   0  0  0  0  0  0  0  0  0  0  0  0
   28.1761    3.9565   29.2693 H   0  0  0  0  0  0  0  0  0  0  0  0
  1  8  1  0
  8  9  1  0
  9 10  1  0
 10 11  1  0
 11 12  1  0
 12 13  1  0
 12 14  1  0
 14 15  2  0
 15 16  1  0
 16 17  1  0
 17 12  1  0
 16 18  2  0
 18 19  1  0
 19 20  2  0
 20 21  1  0
 21 17  2  0
 14 22  1  0
 22 23  2  0
 23 24  1  0
 24 25  2  0
 25 15  1  0
 13 26  2  0
 13 27  1  0
 27 28  1  0
  7 29  1  0
 29 30  1  0
 29 31  2  0
 30 32  1  0
 32 33  2  0
 33 34  1  0
 34 35  2  0
 35 36  1  0
 36 30  2  0
 32 37  1  0
 37 38  2  0
 38 39  1  0
 39 40  2  0
 40 41  1  0
 41 42  2  0
 42 37  1  0
 40 43  1  0
 28 44  1  0
  1  2  1  0
  2  3  1  0
 44 45  1  0
  3  4  1  0
 44 46  1  0
  4  5  1  0
 44 47  1  0
  5  6  1  0
 43 48  1  0
  6  1  1  0
 43 49  1  0
  4  7  1  0
 43 50  1  0
  2 51  1  0
  2 52  1  0
  3 53  1  0
  3 54  1  0
  4 55  1  0
  5 56  1  0
  5 57  1  0
  6 58  1  0
  6 59  1  0
  7 60  1  0
  8 61  1  0
  8 62  1  0
  9 63  1  0
  9 64  1  0
 10 65  1  0
 10 66  1  0
 11 67  1  0
 11 68  1  0
 18 69  1  0
 19 70  1  0
 20 71  1  0
 21 72  1  0
 22 73  1  0
 23 74  1  0
 24 75  1  0
 25 76  1  0
 27 77  1  0
 28 78  1  0
 28 79  1  0
 33 80  1  0
 34 81  1  0
 35 82  1  0
 36 83  1  0
 38 84  1  0
 39 85  1  0
 41 86  1  0
 42 87  1  0
M  END
> <Uni-Dock RESULT> 
ENERGY=   -3.847  LOWER_BOUND=    4.283  UPPER_BOUND=    5.819
INTER + INTRA:          -3.847
INTER:                  -3.847
INTRA:                   0.000
UNBOUND:                 0.000

$$$$

     RDKit          3D

 87 92  0  0  0  0  0  0  0  0999 V2000
   30.8625   12.1658   28.8590 N   0  0  0  0  0  0  0  0  0  0  0  0
   31.5861   12.8253   27.7778 C   0  0  0  0  0  0  0  0  0  0  0  0
   30.6968   13.4365   26.6945 C   0  0  0  0  0  0  0  0  0  0  0  0
   29.6670   12.4278   26.1837 C   0  0  0  0  0  0  0  0  0  0  0  0
   28.8740   11.8394   27.3528 C   0  0  0  0  0  0  0  0  0  0  0  0
   29.8097   11.2589   28.4079 C   0  0  0  0  0  0  0  0  0  0  0  0
   28.7797   13.0529   25.2098 N   0  0  0  0  0  0  0  0  0  0  0  0
   30.5523   12.9695   30.0404 C   0  0  0  0  0  0  0  0  0  0  0  0
   29.7749   14.2720   29.8242 C   0  0  0  0  0  0  0  0  0  0  0  0
   29.2825   14.9083   31.1319 C   0  0  0  0  0  0  0  0  0  0  0  0
   30.4202   15.3651   32.0627 C   0  0  0  0  0  0  0  0  0  0  0  0
   29.9645   16.0941   33.3569 C   0  0  0  0  0  0  0  0  0  0  0  0
   31.2000   16.4179   34.2578 C   0  0  0  0  0  0  0  0  0  0  0  0
   28.9380   15.2550   34.1436 C   0  0  0  0  0  0  0  0  0  0  0  0
   27.7347   15.9739   34.3020 C   0  0  0  0  0  0  0  0  0  0  0  0
   27.8608   17.2600   33.6523 C   0  0  0  0  0  0  0  0  0  0  0  0
   29.1427   17.3664   33.0648 C   0  0  0  0  0  0  0  0  0  0  0  0
   26.9367   18.2861   33.5281 C   0  0  0  0  0  0  0  0  0  0  0  0
   27.2934   19.4253   32.8028 C   0  0  0  0  0  0  0  0  0  0  0  0
   28.5569   19.5250   32.2035 C   0  0  0  0  0  0  0  0  0  0  0  0
   29.4893   18.4918   32.3249 C   0  0  0  0  0  0  0  0  0  0  0  0
   29.0811   13.9727   34.6597 C   0  0  0  0  0  0  0  0  0  0  0  0
   28.0013   13.4078   35.3399 C   0  0  0  0  0  0  0  0  0  0  0  0
   26.8019   14.1202   35.4962 C   0  0  0  0  0  0  0  0  0  0  0  0
   26.6623   15.4102   34.9753 C   0  0  0  0  0  0  0  0  0  0  0  0
   31.3539   15.9757   35.3954 O   0  0  0  0  0  0  0  0  0  0  0  0
   32.1691   17.2341   33.6986 N   0  0  0  0  0  0  0  0  0  0  0  0
   33.4163   17.5102   34.4168 C   0  0  0  0  0  0  0  0  0  0  0  0
   28.0137   12.3014   24.3419 C   0  0  0  0  0  0  0  0  0  0  0  0
   27.0972   13.0895   23.4800 C   0  0  0  0  0  0  0  0  0  0  0  0
   28.0455   11.0807   24.2749 O   0  0  0  0  0  0  0  0  0  0  0  0
   27.1090   12.9436   22.0795 C   0  0  0  0  0  0  0  0  0  0  0  0
   26.1919   13.7057   21.3316 C   0  0  0  0  0  0  0  0  0  0  0  0
   25.2957   14.5778   21.9556 C   0  0  0  0  0  0  0  0  0  0  0  0
   25.2932   14.7049   23.3416 C   0  0  0  0  0  0  0  0  0  0  0  0
   26.1910   13.9621   24.1058 C   0  0  0  0  0  0  0  0  0  0  0  0
   28.0383   12.0503   21.3742 C   0  0  0  0  0  0  0  0  0  0  0  0
   27.5919   10.8243   20.8585 C   0  0  0  0  0  0  0  0  0  0  0  0
   28.4718    9.9626   20.1975 C   0  0  0  0  0  0  0  0  0  0  0  0
   29.8185   10.3124   20.0271 C   0  0  0  0  0  0  0  0  0  0  0  0
   30.2682   11.5379   20.5401 C   0  0  0  0  0  0  0  0  0  0  0  0
   29.3866   12.3982   21.2025 C   0  0  0  0  0  0  0  0  0  0  0  0
   30.7772    9.3672   19.3472 C   0  0  0  0  0  0  0  0  0  0  0  0
   34.5294   16.4875   34.1889 C   0  0  0  0  0  0  0  0  0  0  0  0
   34.8583   16.4479   32.8729 F   0  0  0  0  0  0  0  0  0  0  0  0
   34.1843   15.2401   34.5583 F   0  0  0  0  0  0  0  0  0  0  0  0
   35.6449   16.8312   34.8733 F   0  0  0  0  0  0  0  0  0  0  0  0
   31.4232    8.5527   20.2260 F   0  0  0  0  0  0  0  0  0  0  0  0
   30.1697    8.5417   18.4491 F   0  0  0  0  0  0  0  0  0  0  0  0
   31.7568   10.0122   18.6507 F   0  0  0  0  0  0  0  0  0  0  0  0
   32.2714   13.5864   28.1721 H   0  0  0  0  0  0  0  0  0  0  0  0
   32.2315   12.0735   27.3032 H   0  0  0  0  0  0  0  0  0  0  0  0
   30.1891   14.3313   27.0740 H   0  0  0  0  0  0  0  0  0  0  0  0
   31.3239   13.7762   25.8597 H   0  0  0  0  0  0  0  0  0  0  0  0
   30.1926   11.6123   25.6683 H   0  0  0  0  0  0  0  0  0  0  0  0
   28.2219   12.6010   27.7935 H   0  0  0  0  0  0  0  0  0  0  0  0
   28.2071   11.0456   26.9946 H   0  0  0  0  0  0  0  0  0  0  0  0
   29.2224   10.8801   29.2538 H   0  0  0  0  0  0  0  0  0  0  0  0
   30.2975   10.3726   27.9802 H   0  0  0  0  0  0  0  0  0  0  0  0
   28.6577   14.0564   25.2297 H   0  0  0  0  0  0  0  0  0  0  0  0
   30.0255   12.3464   30.7748 H   0  0  0  0  0  0  0  0  0  0  0  0
   31.5091   13.2136   30.5192 H   0  0  0  0  0  0  0  0  0  0  0  0
   30.3986   14.9977   29.2893 H   0  0  0  0  0  0  0  0  0  0  0  0
   28.8917   14.0857   29.2074 H   0  0  0  0  0  0  0  0  0  0  0  0
   28.6575   15.7687   30.8641 H   0  0  0  0  0  0  0  0  0  0  0  0
   28.6323   14.1910   31.6458 H   0  0  0  0  0  0  0  0  0  0  0  0
   31.0221   14.4933   32.3503 H   0  0  0  0  0  0  0  0  0  0  0  0
   31.0871   16.0151   31.4832 H   0  0  0  0  0  0  0  0  0  0  0  0
   25.9525   18.2136   33.9785 H   0  0  0  0  0  0  0  0  0  0  0  0
   26.5815   20.2404   32.6970 H   0  0  0  0  0  0  0  0  0  0  0  0
   28.8095   20.4181   31.6359 H   0  0  0  0  0  0  0  0  0  0  0  0
   30.4535   18.5871   31.8402 H   0  0  0  0  0  0  0  0  0  0  0  0
   30.0136   13.4253   34.5586 H   0  0  0  0  0  0  0  0  0  0  0  0
   28.0926   12.4095   35.7611 H   0  0  0  0  0  0  0  0  0  0  0  0
   25.9741   13.6642   36.0344 H   0  0  0  0  0  0  0  0  0  0  0  0
   25.7295   15.9495   35.1019 H   0  0  0  0  0  0  0  0  0  0  0  0
   32.1407   17.4386   32.7097 H   0  0  0  0  0  0  0  0  0  0  0  0
   33.2030   17.5833   35.4883 H   0  0  0  0  0  0  0  0  0  0  0  0
   33.7552   18.4948   34.0798 H   0  0  0  0  0  0  0  0  0  0  0  0
   26.1753   13.6203   20.2458 H   0  0  0  0  0  0  0  0  0  0  0  0
   24.5934   15.1521   21.3555 H   0  0  0  0  0  0  0  0  0  0  0  0
   24.5845   15.3720   23.8264 H   0  0  0  0  0  0  0  0  0  0  0  0
   26.1637   14.0413   25.1897 H   0  0  0  0  0  0  0  0  0  0  0  0
   26.5541   10.5230   20.9934 H   0  0  0  0  0  0  0  0  0  0  0  0
   28.1006    9.0077   19.8270 H   0  0  0  0  0  0  0  0  0  0  0  0
   31.3135   11.8246   20.4343 H   0  0  0  0  0  0  0  0  0  0  0  0
   29.7627   13.3412   21.5931 H   0  0  0  0  0  0  0  0  0  0  0  0
  1  8  1  0
  8  9  1  0
  9 10  1  0
 10 11  1  0
 11 12  1  0
 12 13  1  0
 12 14  1  0
 14 15  2  0
 15 16  1  0
 16 17  1  0
 17 12  1  0
 16 18  2  0
 18 19  1  0
 19 20  2  0
 20 21  1  0
 21 17  2  0
 14 22  1  0
 22 23  2  0
 23 24  1  0
 24 25  2  0
 25 15  1  0
 13 26  2  0
 13 27  1  0
 27 28  1  0
  7 29  1  0
 29 30  1  0
 29 31  2  0
 30 32  1  0
 32 33  2  0
 33 34  1  0
 34 35  2  0
 35 36  1  0
 36 30  2  0
 32 37  1  0
 37 38  2  0
 38 39  1  0
 39 40  2  0
 40 41  1  0
 41 42  2  0
 42 37  1  0
 40 43  1  0
 28 44  1  0
  1  2  1  0
  2  3  1  0
 44 45  1  0
  3  4  1  0
 44 46  1  0
  4  5  1  0
 44 47  1  0
  5  6  1  0
 43 48  1  0
  6  1  1  0
 43 49  1  0
  4  7  1  0
 43 50  1  0
  2 51  1  0
  2 52  1  0
  3 53  1  0
  3 54  1  0
  4 55  1  0
  5 56  1  0
  5 57  1  0
  6 58  1  0
  6 59  1  0
  7 60  1  0
  8 61  1  0
  8 62  1  0
  9 63  1  0
  9 64  1  0
 10 65  1  0
 10 66  1  0
 11 67  1  0
 11 68  1  0
 18 69  1  0
 19 70  1  0
 20 71  1  0
 21 72  1  0
 22 73  1  0
 23 74  1  0
 24 75  1  0
 25 76  1  0
 27 77  1  0
 28 78  1  0
 28 79  1  0
 33 80  1  0
 34 81  1  0
 35 82  1  0
 36 83  1  0
 38 84  1  0
 39 85  1  0
 41 86  1  0
 42 87  1  0
M  END
> <Uni-Dock RESULT> 
ENERGY=   -3.839  LOWER_BOUND=    6.394  UPPER_BOUND=   11.763
INTER + INTRA:          -3.839
INTER:                  -3.839
INTRA:                   0.000
UNBOUND:                 0.000

$$$$

     RDKit          3D

 87 92  0  0  0  0  0  0  0  0999 V2000
   25.9546   11.2775   28.8630 N   0  0  0  0  0  0  0  0  0  0  0  0
   25.9808   10.9131   27.4509 C   0  0  0  0  0  0  0  0  0  0  0  0
   27.3751   10.6291   26.8910 C   0  0  0  0  0  0  0  0  0  0  0  0
   28.3510   11.7580   27.2256 C   0  0  0  0  0  0  0  0  0  0  0  0
   28.3510   12.0319   28.7311 C   0  0  0  0  0  0  0  0  0  0  0  0
   26.9361   12.2929   29.2369 C   0  0  0  0  0  0  0  0  0  0  0  0
   29.6910   11.4315   26.7518 N   0  0  0  0  0  0  0  0  0  0  0  0
   25.7534   10.1962   29.8264 C   0  0  0  0  0  0  0  0  0  0  0  0
   26.7264    9.0137   29.7742 C   0  0  0  0  0  0  0  0  0  0  0  0
   26.5913    8.0641   30.9730 C   0  0  0  0  0  0  0  0  0  0  0  0
   25.2277    7.3537   31.0473 C   0  0  0  0  0  0  0  0  0  0  0  0
   25.0825    6.3176   32.1958 C   0  0  0  0  0  0  0  0  0  0  0  0
   23.6299    5.7415   32.2229 C   0  0  0  0  0  0  0  0  0  0  0  0
   25.4336    6.9393   33.5622 C   0  0  0  0  0  0  0  0  0  0  0  0
   26.4915    6.2290   34.1674 C   0  0  0  0  0  0  0  0  0  0  0  0
   26.9087    5.1586   33.2886 C   0  0  0  0  0  0  0  0  0  0  0  0
   26.1266    5.1853   32.1108 C   0  0  0  0  0  0  0  0  0  0  0  0
   27.9177    4.2212   33.4485 C   0  0  0  0  0  0  0  0  0  0  0  0
   28.1534    3.3078   32.4184 C   0  0  0  0  0  0  0  0  0  0  0  0
   27.3918    3.3444   31.2419 C   0  0  0  0  0  0  0  0  0  0  0  0
   26.3761    4.2891   31.0769 C   0  0  0  0  0  0  0  0  0  0  0  0
   24.8544    8.0359   34.1892 C   0  0  0  0  0  0  0  0  0  0  0  0
   25.3467    8.4226   35.4365 C   0  0  0  0  0  0  0  0  0  0  0  0
   26.4014    7.7191   36.0393 C   0  0  0  0  0  0  0  0  0  0  0  0
   26.9812    6.6163   35.4049 C   0  0  0  0  0  0  0  0  0  0  0  0
   22.8615    5.8633   33.1758 O   0  0  0  0  0  0  0  0  0  0  0  0
   23.2105    5.0827   31.0791 N   0  0  0  0  0  0  0  0  0  0  0  0
   21.8318    4.6007   30.9597 C   0  0  0  0  0  0  0  0  0  0  0  0
   30.6606   12.4016   26.5985 C   0  0  0  0  0  0  0  0  0  0  0  0
   31.9948   11.8889   26.1973 C   0  0  0  0  0  0  0  0  0  0  0  0
   30.4772   13.5956   26.7895 O   0  0  0  0  0  0  0  0  0  0  0  0
   32.6620   12.4003   25.0676 C   0  0  0  0  0  0  0  0  0  0  0  0
   33.9357   11.8824   24.7663 C   0  0  0  0  0  0  0  0  0  0  0  0
   34.5231   10.8948   25.5618 C   0  0  0  0  0  0  0  0  0  0  0  0
   33.8523   10.4053   26.6788 C   0  0  0  0  0  0  0  0  0  0  0  0
   32.5898   10.9005   26.9994 C   0  0  0  0  0  0  0  0  0  0  0  0
   32.0838   13.4291   24.1924 C   0  0  0  0  0  0  0  0  0  0  0  0
   32.5313   14.7568   24.2645 C   0  0  0  0  0  0  0  0  0  0  0  0
   31.9778   15.7445   23.4449 C   0  0  0  0  0  0  0  0  0  0  0  0
   30.9699   15.4247   22.5247 C   0  0  0  0  0  0  0  0  0  0  0  0
   30.5209   14.0981   22.4486 C   0  0  0  0  0  0  0  0  0  0  0  0
   31.0748   13.1114   23.2706 C   0  0  0  0  0  0  0  0  0  0  0  0
   30.3459   16.4963   21.6662 C   0  0  0  0  0  0  0  0  0  0  0  0
   20.8382    5.6241   30.4098 C   0  0  0  0  0  0  0  0  0  0  0  0
   21.2095    6.0040   29.1611 F   0  0  0  0  0  0  0  0  0  0  0  0
   20.7537    6.7359   31.1637 F   0  0  0  0  0  0  0  0  0  0  0  0
   19.5991    5.0886   30.3168 F   0  0  0  0  0  0  0  0  0  0  0  0
   29.2296   17.0355   22.2285 F   0  0  0  0  0  0  0  0  0  0  0  0
   31.1840   17.5425   21.4210 F   0  0  0  0  0  0  0  0  0  0  0  0
   29.9595   16.0387   20.4406 F   0  0  0  0  0  0  0  0  0  0  0  0
   25.3182   10.0608   27.2537 H   0  0  0  0  0  0  0  0  0  0  0  0
   25.5512   11.7503   26.8838 H   0  0  0  0  0  0  0  0  0  0  0  0
   27.7571    9.6764   27.2767 H   0  0  0  0  0  0  0  0  0  0  0  0
   27.3108   10.5097   25.8014 H   0  0  0  0  0  0  0  0  0  0  0  0
   28.0340   12.6699   26.7013 H   0  0  0  0  0  0  0  0  0  0  0  0
   28.8048   11.1944   29.2715 H   0  0  0  0  0  0  0  0  0  0  0  0
   28.9748   12.9058   28.9555 H   0  0  0  0  0  0  0  0  0  0  0  0
   26.9549   12.4461   30.3232 H   0  0  0  0  0  0  0  0  0  0  0  0
   26.5964   13.2506   28.8200 H   0  0  0  0  0  0  0  0  0  0  0  0
   29.9410   10.4613   26.6159 H   0  0  0  0  0  0  0  0  0  0  0  0
   25.7384   10.6133   30.8417 H   0  0  0  0  0  0  0  0  0  0  0  0
   24.7368    9.8143   29.6683 H   0  0  0  0  0  0  0  0  0  0  0  0
   26.5750    8.4429   28.8506 H   0  0  0  0  0  0  0  0  0  0  0  0
   27.7582    9.3748   29.7675 H   0  0  0  0  0  0  0  0  0  0  0  0
   27.3914    7.3184   30.8937 H   0  0  0  0  0  0  0  0  0  0  0  0
   26.7770    8.6329   31.8914 H   0  0  0  0  0  0  0  0  0  0  0  0
   24.4356    8.1057   31.1574 H   0  0  0  0  0  0  0  0  0  0  0  0
   25.0501    6.8668   30.0806 H   0  0  0  0  0  0  0  0  0  0  0  0
   28.5200    4.1921   34.3502 H   0  0  0  0  0  0  0  0  0  0  0  0
   28.9396    2.5645   32.5279 H   0  0  0  0  0  0  0  0  0  0  0  0
   27.5991    2.6284   30.4493 H   0  0  0  0  0  0  0  0  0  0  0  0
   25.8115    4.3058   30.1524 H   0  0  0  0  0  0  0  0  0  0  0  0
   24.0252    8.5712   33.7360 H   0  0  0  0  0  0  0  0  0  0  0  0
   24.9032    9.2716   35.9512 H   0  0  0  0  0  0  0  0  0  0  0  0
   26.7668    8.0332   37.0143 H   0  0  0  0  0  0  0  0  0  0  0  0
   27.7965    6.0820   35.8810 H   0  0  0  0  0  0  0  0  0  0  0  0
   23.7607    5.1480   30.2344 H   0  0  0  0  0  0  0  0  0  0  0  0
   21.4894    4.2508   31.9391 H   0  0  0  0  0  0  0  0  0  0  0  0
   21.8645    3.7337   30.2925 H   0  0  0  0  0  0  0  0  0  0  0  0
   34.4792   12.2527   23.8980 H   0  0  0  0  0  0  0  0  0  0  0  0
   35.5107   10.5146   25.3105 H   0  0  0  0  0  0  0  0  0  0  0  0
   34.3176    9.6484   27.3054 H   0  0  0  0  0  0  0  0  0  0  0  0
   32.0837   10.5377   27.8905 H   0  0  0  0  0  0  0  0  0  0  0  0
   33.3013   15.0329   24.9835 H   0  0  0  0  0  0  0  0  0  0  0  0
   32.3308   16.7709   23.5391 H   0  0  0  0  0  0  0  0  0  0  0  0
   29.7277   13.8282   21.7529 H   0  0  0  0  0  0  0  0  0  0  0  0
   30.7057   12.0911   23.1930 H   0  0  0  0  0  0  0  0  0  0  0  0
  1  8  1  0
  8  9  1  0
  9 10  1  0
 10 11  1  0
 11 12  1  0
 12 13  1  0
 12 14  1  0
 14 15  2  0
 15 16  1  0
 16 17  1  0
 17 12  1  0
 16 18  2  0
 18 19  1  0
 19 20  2  0
 20 21  1  0
 21 17  2  0
 14 22  1  0
 22 23  2  0
 23 24  1  0
 24 25  2  0
 25 15  1  0
 13 26  2  0
 13 27  1  0
 27 28  1  0
  7 29  1  0
 29 30  1  0
 29 31  2  0
 30 32  1  0
 32 33  2  0
 33 34  1  0
 34 35  2  0
 35 36  1  0
 36 30  2  0
 32 37  1  0
 37 38  2  0
 38 39  1  0
 39 40  2  0
 40 41  1  0
 41 42  2  0
 42 37  1  0
 40 43  1  0
 28 44  1  0
  1  2  1  0
  2  3  1  0
 44 45  1  0
  3  4  1  0
 44 46  1  0
  4  5  1  0
 44 47  1  0
  5  6  1  0
 43 48  1  0
  6  1  1  0
 43 49  1  0
  4  7  1  0
 43 50  1  0
  2 51  1  0
  2 52  1  0
  3 53  1  0
  3 54  1  0
  4 55  1  0
  5 56  1  0
  5 57  1  0
  6 58  1  0
  6 59  1  0
  7 60  1  0
  8 61  1  0
  8 62  1  0
  9 63  1  0
  9 64  1  0
 10 65  1  0
 10 66  1  0
 11 67  1  0
 11 68  1  0
 18 69  1  0
 19 70  1  0
 20 71  1  0
 21 72  1  0
 22 73  1  0
 23 74  1  0
 24 75  1  0
 25 76  1  0
 27 77  1  0
 28 78  1  0
 28 79  1  0
 33 80  1  0
 34 81  1  0
 35 82  1  0
 36 83  1  0
 38 84  1  0
 39 85  1  0
 41 86  1  0
 42 87  1  0
M  END
> <Uni-Dock RESULT> 
ENERGY=   -3.619  LOWER_BOUND=    5.965  UPPER_BOUND=   13.046
INTER + INTRA:          -3.619
INTER:                  -3.619
INTRA:                   0.000
UNBOUND:                 0.000

$$$$
