
     RDKit          3D

 87 92  0  0  0  0  0  0  0  0999 V2000
   27.5841   12.5384   26.5636 N   0  0  0  0  0  0  0  0  0  0  0  0
   27.8348   13.9244   27.0027 C   0  0  0  0  0  0  0  0  0  0  0  0
   28.8742   14.6300   26.1338 C   0  0  0  0  0  0  0  0  0  0  0  0
   30.1809   13.8417   26.1323 C   0  0  0  0  0  0  0  0  0  0  0  0
   29.9039   12.4136   25.6708 C   0  0  0  0  0  0  0  0  0  0  0  0
   28.8409   11.7620   26.5509 C   0  0  0  0  0  0  0  0  0  0  0  0
   31.1872   14.4819   25.2980 N   0  0  0  0  0  0  0  0  0  0  0  0
   26.5983   11.9245   27.4820 C   0  0  0  0  0  0  0  0  0  0  0  0
   26.0028   10.6028   26.9686 C   0  0  0  0  0  0  0  0  0  0  0  0
   25.2403    9.8496   28.0697 C   0  0  0  0  0  0  0  0  0  0  0  0
   23.8970   10.4833   28.4607 C   0  0  0  0  0  0  0  0  0  0  0  0
   23.4555   10.2053   29.9242 C   0  0  0  0  0  0  0  0  0  0  0  0
   24.4232   10.8685   30.9432 C   0  0  0  0  0  0  0  0  0  0  0  0
   23.2098    8.7121   30.2157 C   0  0  0  0  0  0  0  0  0  0  0  0
   21.8483    8.4923   30.5259 C   0  0  0  0  0  0  0  0  0  0  0  0
   21.1353    9.7502   30.4757 C   0  0  0  0  0  0  0  0  0  0  0  0
   22.0387   10.7800   30.1362 C   0  0  0  0  0  0  0  0  0  0  0  0
   19.8027   10.0376   30.7241 C   0  0  0  0  0  0  0  0  0  0  0  0
   19.3772   11.3661   30.6341 C   0  0  0  0  0  0  0  0  0  0  0  0
   20.2795   12.3881   30.2974 C   0  0  0  0  0  0  0  0  0  0  0  0
   21.6213   12.1014   30.0449 C   0  0  0  0  0  0  0  0  0  0  0  0
   24.1253    7.6661   30.2576 C   0  0  0  0  0  0  0  0  0  0  0  0
   23.6646    6.3889   30.5844 C   0  0  0  0  0  0  0  0  0  0  0  0
   22.3102    6.1674   30.8719 C   0  0  0  0  0  0  0  0  0  0  0  0
   21.3930    7.2224   30.8489 C   0  0  0  0  0  0  0  0  0  0  0  0
   25.2464   11.7234   30.6121 O   0  0  0  0  0  0  0  0  0  0  0  0
   24.2759   10.4881   32.2608 N   0  0  0  0  0  0  0  0  0  0  0  0
   25.1157   11.0199   33.3358 C   0  0  0  0  0  0  0  0  0  0  0  0
   32.5321   14.2230   25.4694 C   0  0  0  0  0  0  0  0  0  0  0  0
   33.4600   14.8149   24.4677 C   0  0  0  0  0  0  0  0  0  0  0  0
   32.9892   13.5781   26.4066 O   0  0  0  0  0  0  0  0  0  0  0  0
   33.2763   14.7166   23.0701 C   0  0  0  0  0  0  0  0  0  0  0  0
   34.2307   15.3368   22.2381 C   0  0  0  0  0  0  0  0  0  0  0  0
   35.3349   16.0090   22.7673 C   0  0  0  0  0  0  0  0  0  0  0  0
   35.5158   16.0720   24.1445 C   0  0  0  0  0  0  0  0  0  0  0  0
   34.5832   15.4768   24.9933 C   0  0  0  0  0  0  0  0  0  0  0  0
   32.1780   13.9634   22.4431 C   0  0  0  0  0  0  0  0  0  0  0  0
   31.2121   14.6161   21.6589 C   0  0  0  0  0  0  0  0  0  0  0  0
   30.1461   13.9071   21.0980 C   0  0  0  0  0  0  0  0  0  0  0  0
   30.0170   12.5266   21.3076 C   0  0  0  0  0  0  0  0  0  0  0  0
   30.9978   11.8653   22.0585 C   0  0  0  0  0  0  0  0  0  0  0  0
   32.0628   12.5765   22.6206 C   0  0  0  0  0  0  0  0  0  0  0  0
   28.8572   11.7674   20.7115 C   0  0  0  0  0  0  0  0  0  0  0  0
   25.8659    9.9525   34.1291 C   0  0  0  0  0  0  0  0  0  0  0  0
   26.6932    9.2294   33.3434 F   0  0  0  0  0  0  0  0  0  0  0  0
   24.9964    9.0957   34.7154 F   0  0  0  0  0  0  0  0  0  0  0  0
   26.6112   10.5123   35.1090 F   0  0  0  0  0  0  0  0  0  0  0  0
   27.7045   12.4923   20.6947 F   0  0  0  0  0  0  0  0  0  0  0  0
   29.0876   11.4019   19.4192 F   0  0  0  0  0  0  0  0  0  0  0  0
   28.5639   10.6181   21.3806 F   0  0  0  0  0  0  0  0  0  0  0  0
   28.1632   13.9455   28.0498 H   0  0  0  0  0  0  0  0  0  0  0  0
   26.9030   14.4998   26.9446 H   0  0  0  0  0  0  0  0  0  0  0  0
   28.4905   14.7406   25.1116 H   0  0  0  0  0  0  0  0  0  0  0  0
   29.0457   15.6427   26.5144 H   0  0  0  0  0  0  0  0  0  0  0  0
   30.5756   13.8094   27.1571 H   0  0  0  0  0  0  0  0  0  0  0  0
   29.5658   12.4170   24.6273 H   0  0  0  0  0  0  0  0  0  0  0  0
   30.8224   11.8138   25.7000 H   0  0  0  0  0  0  0  0  0  0  0  0
   29.2348   11.6436   27.5685 H   0  0  0  0  0  0  0  0  0  0  0  0
   28.6690   10.7579   26.1508 H   0  0  0  0  0  0  0  0  0  0  0  0
   30.8791   14.9232   24.4435 H   0  0  0  0  0  0  0  0  0  0  0  0
   25.7648   12.6232   27.6169 H   0  0  0  0  0  0  0  0  0  0  0  0
   27.0515   11.7800   28.4703 H   0  0  0  0  0  0  0  0  0  0  0  0
   26.7971    9.9306   26.6277 H   0  0  0  0  0  0  0  0  0  0  0  0
   25.3485   10.7894   26.1079 H   0  0  0  0  0  0  0  0  0  0  0  0
   25.9037    9.7641   28.9404 H   0  0  0  0  0  0  0  0  0  0  0  0
   25.0466    8.8242   27.7172 H   0  0  0  0  0  0  0  0  0  0  0  0
   23.9371   11.5675   28.3044 H   0  0  0  0  0  0  0  0  0  0  0  0
   23.1337   10.1194   27.7577 H   0  0  0  0  0  0  0  0  0  0  0  0
   19.0971    9.2580   30.9920 H   0  0  0  0  0  0  0  0  0  0  0  0
   18.3367   11.6132   30.8296 H   0  0  0  0  0  0  0  0  0  0  0  0
   19.9268   13.4140   30.2330 H   0  0  0  0  0  0  0  0  0  0  0  0
   22.3163   12.8956   29.7849 H   0  0  0  0  0  0  0  0  0  0  0  0
   25.1812    7.8196   30.0576 H   0  0  0  0  0  0  0  0  0  0  0  0
   24.3650    5.5575   30.6227 H   0  0  0  0  0  0  0  0  0  0  0  0
   21.9731    5.1648   31.1264 H   0  0  0  0  0  0  0  0  0  0  0  0
   20.3493    7.0399   31.0865 H   0  0  0  0  0  0  0  0  0  0  0  0
   23.5321    9.8406   32.5049 H   0  0  0  0  0  0  0  0  0  0  0  0
   25.8352   11.7369   32.9301 H   0  0  0  0  0  0  0  0  0  0  0  0
   24.4486   11.5684   34.0072 H   0  0  0  0  0  0  0  0  0  0  0  0
   34.1317   15.2727   21.1544 H   0  0  0  0  0  0  0  0  0  0  0  0
   36.0599   16.4704   22.1014 H   0  0  0  0  0  0  0  0  0  0  0  0
   36.3836   16.5781   24.5583 H   0  0  0  0  0  0  0  0  0  0  0  0
   34.7311   15.5222   26.0725 H   0  0  0  0  0  0  0  0  0  0  0  0
   31.2754   15.6892   21.4947 H   0  0  0  0  0  0  0  0  0  0  0  0
   29.4054   14.4388   20.5000 H   0  0  0  0  0  0  0  0  0  0  0  0
   30.9287   10.7930   22.2286 H   0  0  0  0  0  0  0  0  0  0  0  0
   32.8016   12.0351   23.2138 H   0  0  0  0  0  0  0  0  0  0  0  0
  1  8  1  0
  8  9  1  0
  9 10  1  0
 10 11  1  0
 11 12  1  0
 12 13  1  0
 12 14  1  0
 14 15  2  0
 15 16  1  0
 16 17  1  0
 17 12  1  0
 16 18  2  0
 18 19  1  0
 19 20  2  0
 20 21  1  0
 21 17  2  0
 14 22  1  0
 22 23  2  0
 23 24  1  0
 24 25  2  0
 25 15  1  0
 13 26  2  0
 13 27  1  0
 27 28  1  0
  7 29  1  0
 29 30  1  0
 29 31  2  0
 30 32  1  0
 32 33  2  0
 33 34  1  0
 34 35  2  0
 35 36  1  0
 36 30  2  0
 32 37  1  0
 37 38  2  0
 38 39  1  0
 39 40  2  0
 40 41  1  0
 41 42  2  0
 42 37  1  0
 40 43  1  0
 28 44  1  0
  1  2  1  0
  2  3  1  0
 44 45  1  0
  3  4  1  0
 44 46  1  0
  4  5  1  0
 44 47  1  0
  5  6  1  0
 43 48  1  0
  6  1  1  0
 43 49  1  0
  4  7  1  0
 43 50  1  0
  2 51  1  0
  2 52  1  0
  3 53  1  0
  3 54  1  0
  4 55  1  0
  5 56  1  0
  5 57  1  0
  6 58  1  0
  6 59  1  0
  7 60  1  0
  8 61  1  0
  8 62  1  0
  9 63  1  0
  9 64  1  0
 10 65  1  0
 10 66  1  0
 11 67  1  0
 11 68  1  0
 18 69  1  0
 19 70  1  0
 20 71  1  0
 21 72  1  0
 22 73  1  0
 23 74  1  0
 24 75  1  0
 25 76  1  0
 27 77  1  0
 28 78  1  0
 28 79  1  0
 33 80  1  0
 34 81  1  0
 35 82  1  0
 36 83  1  0
 38 84  1  0
 39 85  1  0
 41 86  1  0
 42 87  1  0
M  END
> <Uni-Dock RESULT> 
ENERGY=   -5.354  LOWER_BOUND=    0.000  UPPER_BOUND=    0.000
INTER + INTRA:          -5.354
INTER:                  -5.354
INTRA:                   0.000
UNBOUND:                 0.000

$$$$

     RDKit          3D

 87 92  0  0  0  0  0  0  0  0999 V2000
   27.6077   12.4995   26.6770 N   0  0  0  0  0  0  0  0  0  0  0  0
   27.8250   13.8934   27.1091 C   0  0  0  0  0  0  0  0  0  0  0  0
   28.8611   14.6136   26.2481 C   0  0  0  0  0  0  0  0  0  0  0  0
   30.1831   13.8517   26.2688 C   0  0  0  0  0  0  0  0  0  0  0  0
   29.9407   12.4151   25.8144 C   0  0  0  0  0  0  0  0  0  0  0  0
   28.8799   11.7485   26.6858 C   0  0  0  0  0  0  0  0  0  0  0  0
   31.1869   14.5062   25.4425 N   0  0  0  0  0  0  0  0  0  0  0  0
   26.6228   11.8725   27.5875 C   0  0  0  0  0  0  0  0  0  0  0  0
   26.0605   10.5354   27.0764 C   0  0  0  0  0  0  0  0  0  0  0  0
   25.2993    9.7748   28.1733 C   0  0  0  0  0  0  0  0  0  0  0  0
   23.9388   10.3841   28.5428 C   0  0  0  0  0  0  0  0  0  0  0  0
   23.4844   10.1078   30.0027 C   0  0  0  0  0  0  0  0  0  0  0  0
   24.4257   10.7974   31.0288 C   0  0  0  0  0  0  0  0  0  0  0  0
   23.2650    8.6120   30.3020 C   0  0  0  0  0  0  0  0  0  0  0  0
   21.9044    8.3671   30.5967 C   0  0  0  0  0  0  0  0  0  0  0  0
   21.1670    9.6099   30.5283 C   0  0  0  0  0  0  0  0  0  0  0  0
   22.0538   10.6553   30.1927 C   0  0  0  0  0  0  0  0  0  0  0  0
   19.8259    9.8722   30.7580 C   0  0  0  0  0  0  0  0  0  0  0  0
   19.3750   11.1913   30.6528 C   0  0  0  0  0  0  0  0  0  0  0  0
   20.2609   12.2288   30.3200 C   0  0  0  0  0  0  0  0  0  0  0  0
   21.6113   11.9673   30.0865 C   0  0  0  0  0  0  0  0  0  0  0  0
   24.2006    7.5849   30.3631 C   0  0  0  0  0  0  0  0  0  0  0  0
   23.7615    6.3011   30.6934 C   0  0  0  0  0  0  0  0  0  0  0  0
   22.4084    6.0544   30.9656 C   0  0  0  0  0  0  0  0  0  0  0  0
   21.4705    7.0905   30.9233 C   0  0  0  0  0  0  0  0  0  0  0  0
   25.2357   11.6664   30.7018 O   0  0  0  0  0  0  0  0  0  0  0  0
   24.2693   10.4235   32.3473 N   0  0  0  0  0  0  0  0  0  0  0  0
   25.0846   10.9797   33.4288 C   0  0  0  0  0  0  0  0  0  0  0  0
   32.5344   14.2755   25.6326 C   0  0  0  0  0  0  0  0  0  0  0  0
   33.4629   14.8790   24.6383 C   0  0  0  0  0  0  0  0  0  0  0  0
   32.9924   13.6466   26.5802 O   0  0  0  0  0  0  0  0  0  0  0  0
   33.2990   14.7670   23.2393 C   0  0  0  0  0  0  0  0  0  0  0  0
   34.2512   15.4003   22.4148 C   0  0  0  0  0  0  0  0  0  0  0  0
   35.3350   16.0984   22.9528 C   0  0  0  0  0  0  0  0  0  0  0  0
   35.4971   16.1748   24.3317 C   0  0  0  0  0  0  0  0  0  0  0  0
   34.5659   15.5670   25.1731 C   0  0  0  0  0  0  0  0  0  0  0  0
   32.2240   13.9874   22.6041 C   0  0  0  0  0  0  0  0  0  0  0  0
   31.2553   14.6150   21.8031 C   0  0  0  0  0  0  0  0  0  0  0  0
   30.2109   13.8808   21.2341 C   0  0  0  0  0  0  0  0  0  0  0  0
   30.1068   12.4994   21.4522 C   0  0  0  0  0  0  0  0  0  0  0  0
   31.0911   11.8633   22.2202 C   0  0  0  0  0  0  0  0  0  0  0  0
   32.1344   12.5998   22.7903 C   0  0  0  0  0  0  0  0  0  0  0  0
   28.9701   11.7129   20.8472 C   0  0  0  0  0  0  0  0  0  0  0  0
   25.8459    9.9333   34.2392 C   0  0  0  0  0  0  0  0  0  0  0  0
   26.6974    9.2215   33.4692 F   0  0  0  0  0  0  0  0  0  0  0  0
   24.9864    9.0634   34.8209 F   0  0  0  0  0  0  0  0  0  0  0  0
   26.5673   10.5149   35.2242 F   0  0  0  0  0  0  0  0  0  0  0  0
   27.8034   12.4142   20.8106 F   0  0  0  0  0  0  0  0  0  0  0  0
   29.2241   11.3429   19.5606 F   0  0  0  0  0  0  0  0  0  0  0  0
   28.6915   10.5626   21.5209 F   0  0  0  0  0  0  0  0  0  0  0  0
   28.1397   13.9286   28.1601 H   0  0  0  0  0  0  0  0  0  0  0  0
   26.8827   14.4495   27.0351 H   0  0  0  0  0  0  0  0  0  0  0  0
   28.4882   14.7091   25.2204 H   0  0  0  0  0  0  0  0  0  0  0  0
   29.0073   15.6322   26.6234 H   0  0  0  0  0  0  0  0  0  0  0  0
   30.5654   13.8347   27.2987 H   0  0  0  0  0  0  0  0  0  0  0  0
   29.6159   12.4043   24.7666 H   0  0  0  0  0  0  0  0  0  0  0  0
   30.8706   11.8342   25.8594 H   0  0  0  0  0  0  0  0  0  0  0  0
   29.2631   11.6453   27.7091 H   0  0  0  0  0  0  0  0  0  0  0  0
   28.7333   10.7383   26.2909 H   0  0  0  0  0  0  0  0  0  0  0  0
   30.8809   14.9351   24.5809 H   0  0  0  0  0  0  0  0  0  0  0  0
   25.7739   12.5551   27.7068 H   0  0  0  0  0  0  0  0  0  0  0  0
   27.0663   11.7441   28.5824 H   0  0  0  0  0  0  0  0  0  0  0  0
   26.8723    9.8770   26.7504 H   0  0  0  0  0  0  0  0  0  0  0  0
   25.4136   10.7028   26.2062 H   0  0  0  0  0  0  0  0  0  0  0  0
   25.9533    9.7089   29.0529 H   0  0  0  0  0  0  0  0  0  0  0  0
   25.1307    8.7433   27.8260 H   0  0  0  0  0  0  0  0  0  0  0  0
   23.9592   11.4679   28.3791 H   0  0  0  0  0  0  0  0  0  0  0  0
   23.1919   10.0000   27.8330 H   0  0  0  0  0  0  0  0  0  0  0  0
   19.1327    9.0805   31.0227 H   0  0  0  0  0  0  0  0  0  0  0  0
   18.3274   11.4187   30.8335 H   0  0  0  0  0  0  0  0  0  0  0  0
   19.8885   13.2469   30.2437 H   0  0  0  0  0  0  0  0  0  0  0  0
   22.2935   12.7735   29.8294 H   0  0  0  0  0  0  0  0  0  0  0  0
   25.2558    7.7582   30.1752 H   0  0  0  0  0  0  0  0  0  0  0  0
   24.4779    5.4842   30.7466 H   0  0  0  0  0  0  0  0  0  0  0  0
   22.0882    5.0471   31.2232 H   0  0  0  0  0  0  0  0  0  0  0  0
   20.4278    6.8888   31.1492 H   0  0  0  0  0  0  0  0  0  0  0  0
   23.5355    9.7629   32.5867 H   0  0  0  0  0  0  0  0  0  0  0  0
   25.7946   11.7082   33.0269 H   0  0  0  0  0  0  0  0  0  0  0  0
   24.3982   11.5195   34.0876 H   0  0  0  0  0  0  0  0  0  0  0  0
   34.1673   15.3266   21.3304 H   0  0  0  0  0  0  0  0  0  0  0  0
   36.0589   16.5695   22.2927 H   0  0  0  0  0  0  0  0  0  0  0  0
   36.3493   16.7012   24.7526 H   0  0  0  0  0  0  0  0  0  0  0  0
   34.6991   15.6230   26.2536 H   0  0  0  0  0  0  0  0  0  0  0  0
   31.2991   15.6880   21.6318 H   0  0  0  0  0  0  0  0  0  0  0  0
   29.4673   14.3931   20.6230 H   0  0  0  0  0  0  0  0  0  0  0  0
   31.0414   10.7911   22.3973 H   0  0  0  0  0  0  0  0  0  0  0  0
   32.8763   12.0776   23.3967 H   0  0  0  0  0  0  0  0  0  0  0  0
  1  8  1  0
  8  9  1  0
  9 10  1  0
 10 11  1  0
 11 12  1  0
 12 13  1  0
 12 14  1  0
 14 15  2  0
 15 16  1  0
 16 17  1  0
 17 12  1  0
 16 18  2  0
 18 19  1  0
 19 20  2  0
 20 21  1  0
 21 17  2  0
 14 22  1  0
 22 23  2  0
 23 24  1  0
 24 25  2  0
 25 15  1  0
 13 26  2  0
 13 27  1  0
 27 28  1  0
  7 29  1  0
 29 30  1  0
 29 31  2  0
 30 32  1  0
 32 33  2  0
 33 34  1  0
 34 35  2  0
 35 36  1  0
 36 30  2  0
 32 37  1  0
 37 38  2  0
 38 39  1  0
 39 40  2  0
 40 41  1  0
 41 42  2  0
 42 37  1  0
 40 43  1  0
 28 44  1  0
  1  2  1  0
  2  3  1  0
 44 45  1  0
  3  4  1  0
 44 46  1  0
  4  5  1  0
 44 47  1  0
  5  6  1  0
 43 48  1  0
  6  1  1  0
 43 49  1  0
  4  7  1  0
 43 50  1  0
  2 51  1  0
  2 52  1  0
  3 53  1  0
  3 54  1  0
  4 55  1  0
  5 56  1  0
  5 57  1  0
  6 58  1  0
  6 59  1  0
  7 60  1  0
  8 61  1  0
  8 62  1  0
  9 63  1  0
  9 64  1  0
 10 65  1  0
 10 66  1  0
 11 67  1  0
 11 68  1  0
 18 69  1  0
 19 70  1  0
 20 71  1  0
 21 72  1  0
 22 73  1  0
 23 74  1  0
 24 75  1  0
 25 76  1  0
 27 77  1  0
 28 78  1  0
 28 79  1  0
 33 80  1  0
 34 81  1  0
 35 82  1  0
 36 83  1  0
 38 84  1  0
 39 85  1  0
 41 86  1  0
 42 87  1  0
M  END
> <Uni-Dock RESULT> 
ENERGY=   -5.344  LOWER_BOUND=    0.157  UPPER_BOUND=    0.157
INTER + INTRA:          -5.344
INTER:                  -5.344
INTRA:                   0.000
UNBOUND:                 0.000

$$$$

     RDKit          3D

 87 92  0  0  0  0  0  0  0  0999 V2000
   30.3790   11.2587   25.9521 N   0  0  0  0  0  0  0  0  0  0  0  0
   29.0767   11.0118   26.6003 C   0  0  0  0  0  0  0  0  0  0  0  0
   27.9016   11.2621   25.6570 C   0  0  0  0  0  0  0  0  0  0  0  0
   27.9522   12.6901   25.1214 C   0  0  0  0  0  0  0  0  0  0  0  0
   29.3025   12.9260   24.4503 C   0  0  0  0  0  0  0  0  0  0  0  0
   30.4427   12.6364   25.4224 C   0  0  0  0  0  0  0  0  0  0  0  0
   26.8523   12.9537   24.2052 N   0  0  0  0  0  0  0  0  0  0  0  0
   31.4511   11.0299   26.9472 C   0  0  0  0  0  0  0  0  0  0  0  0
   32.8605   10.9370   26.3388 C   0  0  0  0  0  0  0  0  0  0  0  0
   33.9567   11.0179   27.4124 C   0  0  0  0  0  0  0  0  0  0  0  0
   34.0831    9.7626   28.2883 C   0  0  0  0  0  0  0  0  0  0  0  0
   34.6317   10.0272   29.7178 C   0  0  0  0  0  0  0  0  0  0  0  0
   33.6464   10.8930   30.5510 C   0  0  0  0  0  0  0  0  0  0  0  0
   36.0705   10.5793   29.7280 C   0  0  0  0  0  0  0  0  0  0  0  0
   36.9441    9.6549   30.3447 C   0  0  0  0  0  0  0  0  0  0  0  0
   36.1922    8.4951   30.7722 C   0  0  0  0  0  0  0  0  0  0  0  0
   34.8340    8.6746   30.4334 C   0  0  0  0  0  0  0  0  0  0  0  0
   36.6061    7.3509   31.4353 C   0  0  0  0  0  0  0  0  0  0  0  0
   35.6502    6.3847   31.7619 C   0  0  0  0  0  0  0  0  0  0  0  0
   34.2994    6.5677   31.4243 C   0  0  0  0  0  0  0  0  0  0  0  0
   33.8802    7.7179   30.7550 C   0  0  0  0  0  0  0  0  0  0  0  0
   36.5387   11.8111   29.2838 C   0  0  0  0  0  0  0  0  0  0  0  0
   37.8962   12.1026   29.4341 C   0  0  0  0  0  0  0  0  0  0  0  0
   38.7665   11.1770   30.0273 C   0  0  0  0  0  0  0  0  0  0  0  0
   38.2925    9.9463   30.4916 C   0  0  0  0  0  0  0  0  0  0  0  0
   32.4801   11.0855   30.2035 O   0  0  0  0  0  0  0  0  0  0  0  0
   34.1320   11.3956   31.7402 N   0  0  0  0  0  0  0  0  0  0  0  0
   33.3269   12.2324   32.6321 C   0  0  0  0  0  0  0  0  0  0  0  0
   26.4339   14.2415   23.9378 C   0  0  0  0  0  0  0  0  0  0  0  0
   25.4038   14.4031   22.8759 C   0  0  0  0  0  0  0  0  0  0  0  0
   26.8318   15.2289   24.5461 O   0  0  0  0  0  0  0  0  0  0  0  0
   25.4916   13.8081   21.5972 C   0  0  0  0  0  0  0  0  0  0  0  0
   24.4346   14.0382   20.6931 C   0  0  0  0  0  0  0  0  0  0  0  0
   23.3444   14.8428   21.0325 C   0  0  0  0  0  0  0  0  0  0  0  0
   23.2876   15.4439   22.2851 C   0  0  0  0  0  0  0  0  0  0  0  0
   24.3132   15.2267   23.2045 C   0  0  0  0  0  0  0  0  0  0  0  0
   26.6433   13.0098   21.1467 C   0  0  0  0  0  0  0  0  0  0  0  0
   26.4958   11.6505   20.8234 C   0  0  0  0  0  0  0  0  0  0  0  0
   27.5975   10.8826   20.4356 C   0  0  0  0  0  0  0  0  0  0  0  0
   28.8762   11.4535   20.3621 C   0  0  0  0  0  0  0  0  0  0  0  0
   29.0218   12.8173   20.6482 C   0  0  0  0  0  0  0  0  0  0  0  0
   27.9188   13.5838   21.0379 C   0  0  0  0  0  0  0  0  0  0  0  0
   30.0650   10.6176   19.9561 C   0  0  0  0  0  0  0  0  0  0  0  0
   33.9413   13.5977   32.9317 C   0  0  0  0  0  0  0  0  0  0  0  0
   34.1193   14.3273   31.8089 F   0  0  0  0  0  0  0  0  0  0  0  0
   35.1477   13.4563   33.5304 F   0  0  0  0  0  0  0  0  0  0  0  0
   33.1519   14.3108   33.7669 F   0  0  0  0  0  0  0  0  0  0  0  0
   29.9936    9.3386   20.4181 F   0  0  0  0  0  0  0  0  0  0  0  0
   30.1905   10.5195   18.6028 F   0  0  0  0  0  0  0  0  0  0  0  0
   31.2510   11.1108   20.4087 F   0  0  0  0  0  0  0  0  0  0  0  0
   28.9639   11.6388   27.4941 H   0  0  0  0  0  0  0  0  0  0  0  0
   29.0254    9.9670   26.9298 H   0  0  0  0  0  0  0  0  0  0  0  0
   27.9282   10.5402   24.8308 H   0  0  0  0  0  0  0  0  0  0  0  0
   26.9597   11.0927   26.1897 H   0  0  0  0  0  0  0  0  0  0  0  0
   27.8522   13.3878   25.9643 H   0  0  0  0  0  0  0  0  0  0  0  0
   29.3988   12.2815   23.5678 H   0  0  0  0  0  0  0  0  0  0  0  0
   29.3796   13.9604   24.0919 H   0  0  0  0  0  0  0  0  0  0  0  0
   30.4177   13.3685   26.2397 H   0  0  0  0  0  0  0  0  0  0  0  0
   31.3762   12.7949   24.8734 H   0  0  0  0  0  0  0  0  0  0  0  0
   26.5644   12.2078   23.5881 H   0  0  0  0  0  0  0  0  0  0  0  0
   31.2566   10.0797   27.4574 H   0  0  0  0  0  0  0  0  0  0  0  0
   31.4181   11.8125   27.7150 H   0  0  0  0  0  0  0  0  0  0  0  0
   33.0381   11.7715   25.6525 H   0  0  0  0  0  0  0  0  0  0  0  0
   32.9626   10.0137   25.7550 H   0  0  0  0  0  0  0  0  0  0  0  0
   33.7627   11.9079   28.0254 H   0  0  0  0  0  0  0  0  0  0  0  0
   34.9223   11.1842   26.9094 H   0  0  0  0  0  0  0  0  0  0  0  0
   33.1091    9.2663   28.3708 H   0  0  0  0  0  0  0  0  0  0  0  0
   34.7278    9.0449   27.7605 H   0  0  0  0  0  0  0  0  0  0  0  0
   37.6457    7.2008   31.7079 H   0  0  0  0  0  0  0  0  0  0  0  0
   35.9537    5.4820   32.2861 H   0  0  0  0  0  0  0  0  0  0  0  0
   33.5733    5.8033   31.6880 H   0  0  0  0  0  0  0  0  0  0  0  0
   32.8337    7.8555   30.4959 H   0  0  0  0  0  0  0  0  0  0  0  0
   35.8784   12.5496   28.8398 H   0  0  0  0  0  0  0  0  0  0  0  0
   38.2820   13.0609   29.0932 H   0  0  0  0  0  0  0  0  0  0  0  0
   39.8200   11.4254   30.1366 H   0  0  0  0  0  0  0  0  0  0  0  0
   38.9744    9.2438   30.9610 H   0  0  0  0  0  0  0  0  0  0  0  0
   35.0735   11.1476   32.0303 H   0  0  0  0  0  0  0  0  0  0  0  0
   32.3266   12.3734   32.2129 H   0  0  0  0  0  0  0  0  0  0  0  0
   33.2157   11.6724   33.5653 H   0  0  0  0  0  0  0  0  0  0  0  0
   24.4708   13.6075   19.6923 H   0  0  0  0  0  0  0  0  0  0  0  0
   22.5479   15.0101   20.3119 H   0  0  0  0  0  0  0  0  0  0  0  0
   22.4499   16.0853   22.5450 H   0  0  0  0  0  0  0  0  0  0  0  0
   24.2691   15.7046   24.1834 H   0  0  0  0  0  0  0  0  0  0  0  0
   25.5198   11.1756   20.8896 H   0  0  0  0  0  0  0  0  0  0  0  0
   27.4575    9.8277   20.1977 H   0  0  0  0  0  0  0  0  0  0  0  0
   30.0003   13.2892   20.5894 H   0  0  0  0  0  0  0  0  0  0  0  0
   28.0679   14.6397   21.2697 H   0  0  0  0  0  0  0  0  0  0  0  0
  1  8  1  0
  8  9  1  0
  9 10  1  0
 10 11  1  0
 11 12  1  0
 12 13  1  0
 12 14  1  0
 14 15  2  0
 15 16  1  0
 16 17  1  0
 17 12  1  0
 16 18  2  0
 18 19  1  0
 19 20  2  0
 20 21  1  0
 21 17  2  0
 14 22  1  0
 22 23  2  0
 23 24  1  0
 24 25  2  0
 25 15  1  0
 13 26  2  0
 13 27  1  0
 27 28  1  0
  7 29  1  0
 29 30  1  0
 29 31  2  0
 30 32  1  0
 32 33  2  0
 33 34  1  0
 34 35  2  0
 35 36  1  0
 36 30  2  0
 32 37  1  0
 37 38  2  0
 38 39  1  0
 39 40  2  0
 40 41  1  0
 41 42  2  0
 42 37  1  0
 40 43  1  0
 28 44  1  0
  1  2  1  0
  2  3  1  0
 44 45  1  0
  3  4  1  0
 44 46  1  0
  4  5  1  0
 44 47  1  0
  5  6  1  0
 43 48  1  0
  6  1  1  0
 43 49  1  0
  4  7  1  0
 43 50  1  0
  2 51  1  0
  2 52  1  0
  3 53  1  0
  3 54  1  0
  4 55  1  0
  5 56  1  0
  5 57  1  0
  6 58  1  0
  6 59  1  0
  7 60  1  0
  8 61  1  0
  8 62  1  0
  9 63  1  0
  9 64  1  0
 10 65  1  0
 10 66  1  0
 11 67  1  0
 11 68  1  0
 18 69  1  0
 19 70  1  0
 20 71  1  0
 21 72  1  0
 22 73  1  0
 23 74  1  0
 24 75  1  0
 25 76  1  0
 27 77  1  0
 28 78  1  0
 28 79  1  0
 33 80  1  0
 34 81  1  0
 35 82  1  0
 36 83  1  0
 38 84  1  0
 39 85  1  0
 41 86  1  0
 42 87  1  0
M  END
> <Uni-Dock RESULT> 
ENERGY=   -5.031  LOWER_BOUND=    5.915  UPPER_BOUND=    9.739
INTER + INTRA:          -5.031
INTER:                  -5.031
INTRA:                   0.000
UNBOUND:                 0.000

$$$$

     RDKit          3D

 87 92  0  0  0  0  0  0  0  0999 V2000
   31.2208   10.6854   28.9472 N   0  0  0  0  0  0  0  0  0  0  0  0
   30.6812   11.7599   29.8022 C   0  0  0  0  0  0  0  0  0  0  0  0
   31.0925   13.1491   29.3182 C   0  0  0  0  0  0  0  0  0  0  0  0
   32.6135   13.2536   29.2512 C   0  0  0  0  0  0  0  0  0  0  0  0
   33.1534   12.1391   28.3593 C   0  0  0  0  0  0  0  0  0  0  0  0
   32.6931   10.7753   28.8667 C   0  0  0  0  0  0  0  0  0  0  0  0
   33.0361   14.5632   28.7766 N   0  0  0  0  0  0  0  0  0  0  0  0
   30.8056    9.3812   29.5119 C   0  0  0  0  0  0  0  0  0  0  0  0
   31.0195    8.1910   28.5616 C   0  0  0  0  0  0  0  0  0  0  0  0
   30.8783    6.8437   29.2867 C   0  0  0  0  0  0  0  0  0  0  0  0
   29.4377    6.4769   29.6727 C   0  0  0  0  0  0  0  0  0  0  0  0
   29.3191    5.5602   30.9216 C   0  0  0  0  0  0  0  0  0  0  0  0
   29.8126    6.2847   32.2047 C   0  0  0  0  0  0  0  0  0  0  0  0
   29.9683    4.1759   30.7279 C   0  0  0  0  0  0  0  0  0  0  0  0
   28.9844    3.1626   30.7844 C   0  0  0  0  0  0  0  0  0  0  0  0
   27.6888    3.7636   31.0158 C   0  0  0  0  0  0  0  0  0  0  0  0
   27.8395    5.1635   31.1114 C   0  0  0  0  0  0  0  0  0  0  0  0
   26.4416    3.1788   31.1664 C   0  0  0  0  0  0  0  0  0  0  0  0
   25.3419    4.0045   31.4173 C   0  0  0  0  0  0  0  0  0  0  0  0
   25.4963    5.3970   31.5131 C   0  0  0  0  0  0  0  0  0  0  0  0
   26.7505    5.9886   31.3600 C   0  0  0  0  0  0  0  0  0  0  0  0
   31.3124    3.8528   30.5767 C   0  0  0  0  0  0  0  0  0  0  0  0
   31.6652    2.5073   30.4526 C   0  0  0  0  0  0  0  0  0  0  0  0
   30.6868    1.5036   30.4880 C   0  0  0  0  0  0  0  0  0  0  0  0
   29.3374    1.8268   30.6596 C   0  0  0  0  0  0  0  0  0  0  0  0
   29.9951    7.5025   32.2467 O   0  0  0  0  0  0  0  0  0  0  0  0
   29.9854    5.4954   33.3226 N   0  0  0  0  0  0  0  0  0  0  0  0
   30.4499    6.0303   34.6039 C   0  0  0  0  0  0  0  0  0  0  0  0
   34.3037   15.0449   29.0336 C   0  0  0  0  0  0  0  0  0  0  0  0
   34.6780   16.3266   28.3763 C   0  0  0  0  0  0  0  0  0  0  0  0
   35.1004   14.5009   29.7902 O   0  0  0  0  0  0  0  0  0  0  0  0
   34.4938   16.5884   27.0000 C   0  0  0  0  0  0  0  0  0  0  0  0
   34.8848   17.8532   26.5151 C   0  0  0  0  0  0  0  0  0  0  0  0
   35.4556   18.8132   27.3541 C   0  0  0  0  0  0  0  0  0  0  0  0
   35.6558   18.5288   28.7004 C   0  0  0  0  0  0  0  0  0  0  0  0
   35.2699   17.2900   29.2113 C   0  0  0  0  0  0  0  0  0  0  0  0
   33.9671   15.5996   26.0453 C   0  0  0  0  0  0  0  0  0  0  0  0
   32.7548   15.8231   25.3714 C   0  0  0  0  0  0  0  0  0  0  0  0
   32.2342   14.8654   24.4964 C   0  0  0  0  0  0  0  0  0  0  0  0
   32.9117   13.6582   24.2731 C   0  0  0  0  0  0  0  0  0  0  0  0
   34.1392   13.4466   24.9148 C   0  0  0  0  0  0  0  0  0  0  0  0
   34.6577   14.4050   25.7914 C   0  0  0  0  0  0  0  0  0  0  0  0
   32.3394   12.6213   23.3380 C   0  0  0  0  0  0  0  0  0  0  0  0
   31.7161    5.3642   35.1372 C   0  0  0  0  0  0  0  0  0  0  0  0
   32.7553    5.5030   34.2854 F   0  0  0  0  0  0  0  0  0  0  0  0
   31.5122    4.0395   35.3306 F   0  0  0  0  0  0  0  0  0  0  0  0
   32.0809    5.8990   36.3246 F   0  0  0  0  0  0  0  0  0  0  0  0
   30.9801   12.5576   23.3886 F   0  0  0  0  0  0  0  0  0  0  0  0
   32.6536   12.8696   22.0356 F   0  0  0  0  0  0  0  0  0  0  0  0
   32.7807   11.3592   23.5971 F   0  0  0  0  0  0  0  0  0  0  0  0
   31.0063   11.6275   30.8422 H   0  0  0  0  0  0  0  0  0  0  0  0
   29.5855   11.7142   29.7979 H   0  0  0  0  0  0  0  0  0  0  0  0
   30.6496   13.3456   28.3335 H   0  0  0  0  0  0  0  0  0  0  0  0
   30.6923   13.9090   29.9980 H   0  0  0  0  0  0  0  0  0  0  0  0
   33.0219   13.1231   30.2627 H   0  0  0  0  0  0  0  0  0  0  0  0
   32.8068   12.2842   27.3287 H   0  0  0  0  0  0  0  0  0  0  0  0
   34.2500   12.1677   28.3274 H   0  0  0  0  0  0  0  0  0  0  0  0
   33.1485   10.5798   29.8460 H   0  0  0  0  0  0  0  0  0  0  0  0
   33.0870   10.0280   28.1709 H   0  0  0  0  0  0  0  0  0  0  0  0
   32.4814   15.0050   28.0574 H   0  0  0  0  0  0  0  0  0  0  0  0
   29.7344    9.4243   29.7390 H   0  0  0  0  0  0  0  0  0  0  0  0
   31.3229    9.2071   30.4633 H   0  0  0  0  0  0  0  0  0  0  0  0
   32.0307    8.2116   28.1421 H   0  0  0  0  0  0  0  0  0  0  0  0
   30.3205    8.2477   27.7179 H   0  0  0  0  0  0  0  0  0  0  0  0
   31.5291    6.8673   30.1708 H   0  0  0  0  0  0  0  0  0  0  0  0
   31.2690    6.0529   28.6270 H   0  0  0  0  0  0  0  0  0  0  0  0
   28.8554    7.3889   29.8483 H   0  0  0  0  0  0  0  0  0  0  0  0
   28.9658    5.9973   28.8029 H   0  0  0  0  0  0  0  0  0  0  0  0
   26.3103    2.1036   31.1016 H   0  0  0  0  0  0  0  0  0  0  0  0
   24.3556    3.5650   31.5430 H   0  0  0  0  0  0  0  0  0  0  0  0
   24.6274    6.0198   31.7086 H   0  0  0  0  0  0  0  0  0  0  0  0
   26.8654    7.0668   31.4352 H   0  0  0  0  0  0  0  0  0  0  0  0
   32.0875    4.6128   30.5663 H   0  0  0  0  0  0  0  0  0  0  0  0
   32.7114    2.2339   30.3336 H   0  0  0  0  0  0  0  0  0  0  0  0
   30.9839    0.4615   30.3918 H   0  0  0  0  0  0  0  0  0  0  0  0
   28.5910    1.0392   30.6986 H   0  0  0  0  0  0  0  0  0  0  0  0
   29.7471    4.5092   33.2691 H   0  0  0  0  0  0  0  0  0  0  0  0
   30.6191    7.1078   34.5215 H   0  0  0  0  0  0  0  0  0  0  0  0
   29.6336    5.8798   35.3163 H   0  0  0  0  0  0  0  0  0  0  0  0
   34.7712   18.0895   25.4570 H   0  0  0  0  0  0  0  0  0  0  0  0
   35.7558   19.7770   26.9508 H   0  0  0  0  0  0  0  0  0  0  0  0
   36.1166   19.2667   29.3512 H   0  0  0  0  0  0  0  0  0  0  0  0
   35.4342   17.0675   30.2658 H   0  0  0  0  0  0  0  0  0  0  0  0
   32.1974   16.7416   25.5391 H   0  0  0  0  0  0  0  0  0  0  0  0
   31.2873   15.0599   23.9919 H   0  0  0  0  0  0  0  0  0  0  0  0
   34.6917   12.5237   24.7522 H   0  0  0  0  0  0  0  0  0  0  0  0
   35.6082   14.2035   26.2882 H   0  0  0  0  0  0  0  0  0  0  0  0
  1  8  1  0
  8  9  1  0
  9 10  1  0
 10 11  1  0
 11 12  1  0
 12 13  1  0
 12 14  1  0
 14 15  2  0
 15 16  1  0
 16 17  1  0
 17 12  1  0
 16 18  2  0
 18 19  1  0
 19 20  2  0
 20 21  1  0
 21 17  2  0
 14 22  1  0
 22 23  2  0
 23 24  1  0
 24 25  2  0
 25 15  1  0
 13 26  2  0
 13 27  1  0
 27 28  1  0
  7 29  1  0
 29 30  1  0
 29 31  2  0
 30 32  1  0
 32 33  2  0
 33 34  1  0
 34 35  2  0
 35 36  1  0
 36 30  2  0
 32 37  1  0
 37 38  2  0
 38 39  1  0
 39 40  2  0
 40 41  1  0
 41 42  2  0
 42 37  1  0
 40 43  1  0
 28 44  1  0
  1  2  1  0
  2  3  1  0
 44 45  1  0
  3  4  1  0
 44 46  1  0
  4  5  1  0
 44 47  1  0
  5  6  1  0
 43 48  1  0
  6  1  1  0
 43 49  1  0
  4  7  1  0
 43 50  1  0
  2 51  1  0
  2 52  1  0
  3 53  1  0
  3 54  1  0
  4 55  1  0
  5 56  1  0
  5 57  1  0
  6 58  1  0
  6 59  1  0
  7 60  1  0
  8 61  1  0
  8 62  1  0
  9 63  1  0
  9 64  1  0
 10 65  1  0
 10 66  1  0
 11 67  1  0
 11 68  1  0
 18 69  1  0
 19 70  1  0
 20 71  1  0
 21 72  1  0
 22 73  1  0
 23 74  1  0
 24 75  1  0
 25 76  1  0
 27 77  1  0
 28 78  1  0
 28 79  1  0
 33 80  1  0
 34 81  1  0
 35 82  1  0
 36 83  1  0
 38 84  1  0
 39 85  1  0
 41 86  1  0
 42 87  1  0
M  END
> <Uni-Dock RESULT> 
ENERGY=   -4.425  LOWER_BOUND=    5.027  UPPER_BOUND=    6.470
INTER + INTRA:          -4.425
INTER:                  -4.425
INTRA:                   0.000
UNBOUND:                 0.000

$$$$

     RDKit          3D

 87 92  0  0  0  0  0  0  0  0999 V2000
   30.5573    7.0538   30.6414 N   0  0  0  0  0  0  0  0  0  0  0  0
   29.6652    7.3534   31.7777 C   0  0  0  0  0  0  0  0  0  0  0  0
   29.1438    6.0881   32.4561 C   0  0  0  0  0  0  0  0  0  0  0  0
   28.4160    5.2097   31.4425 C   0  0  0  0  0  0  0  0  0  0  0  0
   29.3544    4.9056   30.2780 C   0  0  0  0  0  0  0  0  0  0  0  0
   29.8696    6.1987   29.6522 C   0  0  0  0  0  0  0  0  0  0  0  0
   27.9212    3.9865   32.0571 N   0  0  0  0  0  0  0  0  0  0  0  0
   30.9801    8.3319   30.0250 C   0  0  0  0  0  0  0  0  0  0  0  0
   32.1537    8.1942   29.0407 C   0  0  0  0  0  0  0  0  0  0  0  0
   32.3496    9.4642   28.1982 C   0  0  0  0  0  0  0  0  0  0  0  0
   32.9342   10.6560   28.9706 C   0  0  0  0  0  0  0  0  0  0  0  0
   32.5264   12.0477   28.4127 C   0  0  0  0  0  0  0  0  0  0  0  0
   30.9997   12.2936   28.5654 C   0  0  0  0  0  0  0  0  0  0  0  0
   33.0344   12.3051   26.9806 C   0  0  0  0  0  0  0  0  0  0  0  0
   33.9577   13.3754   26.9748 C   0  0  0  0  0  0  0  0  0  0  0  0
   34.1133   13.8828   28.3207 C   0  0  0  0  0  0  0  0  0  0  0  0
   33.2876   13.1410   29.1923 C   0  0  0  0  0  0  0  0  0  0  0  0
   34.8840   14.9286   28.8027 C   0  0  0  0  0  0  0  0  0  0  0  0
   34.8221   15.2319   30.1659 C   0  0  0  0  0  0  0  0  0  0  0  0
   33.9981   14.4923   31.0296 C   0  0  0  0  0  0  0  0  0  0  0  0
   33.2225   13.4376   30.5474 C   0  0  0  0  0  0  0  0  0  0  0  0
   32.6614   11.6827   25.7943 C   0  0  0  0  0  0  0  0  0  0  0  0
   33.2410   12.1191   24.6010 C   0  0  0  0  0  0  0  0  0  0  0  0
   34.1724   13.1672   24.5980 C   0  0  0  0  0  0  0  0  0  0  0  0
   34.5331   13.8061   25.7882 C   0  0  0  0  0  0  0  0  0  0  0  0
   30.2870   11.5939   29.2869 O   0  0  0  0  0  0  0  0  0  0  0  0
   30.4862   13.3802   27.8885 N   0  0  0  0  0  0  0  0  0  0  0  0
   29.0672   13.7386   27.9294 C   0  0  0  0  0  0  0  0  0  0  0  0
   26.8932    3.2624   31.4880 C   0  0  0  0  0  0  0  0  0  0  0  0
   26.5686    1.9536   32.1180 C   0  0  0  0  0  0  0  0  0  0  0  0
   26.2262    3.6551   30.5373 O   0  0  0  0  0  0  0  0  0  0  0  0
   27.5340    0.9714   32.4342 C   0  0  0  0  0  0  0  0  0  0  0  0
   27.0837   -0.2193   33.0401 C   0  0  0  0  0  0  0  0  0  0  0  0
   25.7295   -0.4389   33.3029 C   0  0  0  0  0  0  0  0  0  0  0  0
   24.7894    0.5263   32.9594 C   0  0  0  0  0  0  0  0  0  0  0  0
   25.2055    1.7186   32.3680 C   0  0  0  0  0  0  0  0  0  0  0  0
   28.9658    1.1045   32.1199 C   0  0  0  0  0  0  0  0  0  0  0  0
   29.9274    1.1479   33.1433 C   0  0  0  0  0  0  0  0  0  0  0  0
   31.2828    1.3161   32.8463 C   0  0  0  0  0  0  0  0  0  0  0  0
   31.7125    1.4466   31.5179 C   0  0  0  0  0  0  0  0  0  0  0  0
   30.7614    1.3672   30.4921 C   0  0  0  0  0  0  0  0  0  0  0  0
   29.4054    1.2008   30.7910 C   0  0  0  0  0  0  0  0  0  0  0  0
   33.1752    1.6414   31.2025 C   0  0  0  0  0  0  0  0  0  0  0  0
   28.3989   13.8025   26.5581 C   0  0  0  0  0  0  0  0  0  0  0  0
   28.4574   12.6168   25.9136 F   0  0  0  0  0  0  0  0  0  0  0  0
   29.0021   14.7296   25.7768 F   0  0  0  0  0  0  0  0  0  0  0  0
   27.0962   14.1479   26.6702 F   0  0  0  0  0  0  0  0  0  0  0  0
   33.8180    2.4046   32.1292 F   0  0  0  0  0  0  0  0  0  0  0  0
   33.8554    0.4618   31.1531 F   0  0  0  0  0  0  0  0  0  0  0  0
   33.3920    2.2507   30.0040 F   0  0  0  0  0  0  0  0  0  0  0  0
   28.8151    7.9664   31.4516 H   0  0  0  0  0  0  0  0  0  0  0  0
   30.2135    7.9348   32.5287 H   0  0  0  0  0  0  0  0  0  0  0  0
   29.9785    5.5397   32.9111 H   0  0  0  0  0  0  0  0  0  0  0  0
   28.4669    6.3608   33.2729 H   0  0  0  0  0  0  0  0  0  0  0  0
   27.5459    5.7596   31.0582 H   0  0  0  0  0  0  0  0  0  0  0  0
   30.2017    4.3034   30.6283 H   0  0  0  0  0  0  0  0  0  0  0  0
   28.8405    4.3079   29.5145 H   0  0  0  0  0  0  0  0  0  0  0  0
   29.0325    6.7365   29.1890 H   0  0  0  0  0  0  0  0  0  0  0  0
   30.5551    5.9117   28.8488 H   0  0  0  0  0  0  0  0  0  0  0  0
   28.4954    3.5488   32.7633 H   0  0  0  0  0  0  0  0  0  0  0  0
   31.3042    9.0126   30.8204 H   0  0  0  0  0  0  0  0  0  0  0  0
   30.1234    8.8078   29.5325 H   0  0  0  0  0  0  0  0  0  0  0  0
   31.9676    7.3797   28.3330 H   0  0  0  0  0  0  0  0  0  0  0  0
   33.0759    7.9460   29.5808 H   0  0  0  0  0  0  0  0  0  0  0  0
   31.3817    9.7227   27.7487 H   0  0  0  0  0  0  0  0  0  0  0  0
   33.0314    9.2262   27.3666 H   0  0  0  0  0  0  0  0  0  0  0  0
   32.6383   10.5982   30.0245 H   0  0  0  0  0  0  0  0  0  0  0  0
   34.0291   10.5535   28.9733 H   0  0  0  0  0  0  0  0  0  0  0  0
   35.5194   15.5122   28.1444 H   0  0  0  0  0  0  0  0  0  0  0  0
   35.4156   16.0516   30.5630 H   0  0  0  0  0  0  0  0  0  0  0  0
   33.9656   14.7455   32.0859 H   0  0  0  0  0  0  0  0  0  0  0  0
   32.5860   12.8679   31.2195 H   0  0  0  0  0  0  0  0  0  0  0  0
   31.9278   10.8828   25.7721 H   0  0  0  0  0  0  0  0  0  0  0  0
   32.9623   11.6452   23.6623 H   0  0  0  0  0  0  0  0  0  0  0  0
   34.6100   13.4929   23.6568 H   0  0  0  0  0  0  0  0  0  0  0  0
   35.2455   14.6253   25.7705 H   0  0  0  0  0  0  0  0  0  0  0  0
   31.1208   13.9799   27.3690 H   0  0  0  0  0  0  0  0  0  0  0  0
   28.5203   13.0340   28.5624 H   0  0  0  0  0  0  0  0  0  0  0  0
   29.0098   14.7213   28.4067 H   0  0  0  0  0  0  0  0  0  0  0  0
   27.7954   -1.0069   33.2878 H   0  0  0  0  0  0  0  0  0  0  0  0
   25.4099   -1.3705   33.7631 H   0  0  0  0  0  0  0  0  0  0  0  0
   23.7335    0.3503   33.1456 H   0  0  0  0  0  0  0  0  0  0  0  0
   24.4655    2.4708   32.0938 H   0  0  0  0  0  0  0  0  0  0  0  0
   29.6221    1.0687   34.1840 H   0  0  0  0  0  0  0  0  0  0  0  0
   32.0082    1.3546   33.6596 H   0  0  0  0  0  0  0  0  0  0  0  0
   31.0674    1.4548   29.4518 H   0  0  0  0  0  0  0  0  0  0  0  0
   28.6874    1.1590   29.9703 H   0  0  0  0  0  0  0  0  0  0  0  0
  1  8  1  0
  8  9  1  0
  9 10  1  0
 10 11  1  0
 11 12  1  0
 12 13  1  0
 12 14  1  0
 14 15  2  0
 15 16  1  0
 16 17  1  0
 17 12  1  0
 16 18  2  0
 18 19  1  0
 19 20  2  0
 20 21  1  0
 21 17  2  0
 14 22  1  0
 22 23  2  0
 23 24  1  0
 24 25  2  0
 25 15  1  0
 13 26  2  0
 13 27  1  0
 27 28  1  0
  7 29  1  0
 29 30  1  0
 29 31  2  0
 30 32  1  0
 32 33  2  0
 33 34  1  0
 34 35  2  0
 35 36  1  0
 36 30  2  0
 32 37  1  0
 37 38  2  0
 38 39  1  0
 39 40  2  0
 40 41  1  0
 41 42  2  0
 42 37  1  0
 40 43  1  0
 28 44  1  0
  1  2  1  0
  2  3  1  0
 44 45  1  0
  3  4  1  0
 44 46  1  0
  4  5  1  0
 44 47  1  0
  5  6  1  0
 43 48  1  0
  6  1  1  0
 43 49  1  0
  4  7  1  0
 43 50  1  0
  2 51  1  0
  2 52  1  0
  3 53  1  0
  3 54  1  0
  4 55  1  0
  5 56  1  0
  5 57  1  0
  6 58  1  0
  6 59  1  0
  7 60  1  0
  8 61  1  0
  8 62  1  0
  9 63  1  0
  9 64  1  0
 10 65  1  0
 10 66  1  0
 11 67  1  0
 11 68  1  0
 18 69  1  0
 19 70  1  0
 20 71  1  0
 21 72  1  0
 22 73  1  0
 23 74  1  0
 24 75  1  0
 25 76  1  0
 27 77  1  0
 28 78  1  0
 28 79  1  0
 33 80  1  0
 34 81  1  0
 35 82  1  0
 36 83  1  0
 38 84  1  0
 39 85  1  0
 41 86  1  0
 42 87  1  0
M  END
> <Uni-Dock RESULT> 
ENERGY=   -4.421  LOWER_BOUND=    6.194  UPPER_BOUND=   13.209
INTER + INTRA:          -4.421
INTER:                  -4.421
INTRA:                   0.000
UNBOUND:                 0.000

$$$$

     RDKit          3D

 87 92  0  0  0  0  0  0  0  0999 V2000
   31.8342   11.6803   25.9467 N   0  0  0  0  0  0  0  0  0  0  0  0
   33.0561   11.5593   25.1285 C   0  0  0  0  0  0  0  0  0  0  0  0
   34.2315   10.9899   25.9207 C   0  0  0  0  0  0  0  0  0  0  0  0
   34.5104   11.8576   27.1446 C   0  0  0  0  0  0  0  0  0  0  0  0
   33.2387   11.9673   27.9813 C   0  0  0  0  0  0  0  0  0  0  0  0
   32.0884   12.5134   27.1400 C   0  0  0  0  0  0  0  0  0  0  0  0
   35.6167   11.3299   27.9296 N   0  0  0  0  0  0  0  0  0  0  0  0
   30.7653   12.2735   25.1116 C   0  0  0  0  0  0  0  0  0  0  0  0
   29.3591   12.1652   25.7249 C   0  0  0  0  0  0  0  0  0  0  0  0
   28.3429   13.0567   24.9943 C   0  0  0  0  0  0  0  0  0  0  0  0
   27.9427   12.5537   23.5993 C   0  0  0  0  0  0  0  0  0  0  0  0
   27.5116   13.6720   22.6106 C   0  0  0  0  0  0  0  0  0  0  0  0
   28.6972   14.6185   22.2743 C   0  0  0  0  0  0  0  0  0  0  0  0
   26.2477   14.4312   23.0596 C   0  0  0  0  0  0  0  0  0  0  0  0
   25.1947   14.2123   22.1423 C   0  0  0  0  0  0  0  0  0  0  0  0
   25.6578   13.3513   21.0759 C   0  0  0  0  0  0  0  0  0  0  0  0
   27.0101   13.0186   21.3052 C   0  0  0  0  0  0  0  0  0  0  0  0
   24.9996   12.8823   19.9504 C   0  0  0  0  0  0  0  0  0  0  0  0
   25.7045   12.0781   19.0501 C   0  0  0  0  0  0  0  0  0  0  0  0
   27.0504   11.7505   19.2812 C   0  0  0  0  0  0  0  0  0  0  0  0
   27.7150   12.2198   20.4145 C   0  0  0  0  0  0  0  0  0  0  0  0
   26.0767   15.2804   24.1474 C   0  0  0  0  0  0  0  0  0  0  0  0
   24.8330   15.8890   24.3297 C   0  0  0  0  0  0  0  0  0  0  0  0
   23.7823   15.6555   23.4311 C   0  0  0  0  0  0  0  0  0  0  0  0
   23.9598   14.8171   22.3264 C   0  0  0  0  0  0  0  0  0  0  0  0
   29.8661   14.3326   22.5392 O   0  0  0  0  0  0  0  0  0  0  0  0
   28.3779   15.7830   21.6076 N   0  0  0  0  0  0  0  0  0  0  0  0
   29.3833   16.7769   21.2267 C   0  0  0  0  0  0  0  0  0  0  0  0
   36.3242   12.1318   28.8022 C   0  0  0  0  0  0  0  0  0  0  0  0
   37.3346   11.4565   29.6613 C   0  0  0  0  0  0  0  0  0  0  0  0
   36.1907   13.3486   28.8722 O   0  0  0  0  0  0  0  0  0  0  0  0
   37.0730   10.2910   30.4161 C   0  0  0  0  0  0  0  0  0  0  0  0
   38.1300    9.7522   31.1777 C   0  0  0  0  0  0  0  0  0  0  0  0
   39.3899   10.3547   31.2087 C   0  0  0  0  0  0  0  0  0  0  0  0
   39.6222   11.5174   30.4824 C   0  0  0  0  0  0  0  0  0  0  0  0
   38.5991   12.0684   29.7116 C   0  0  0  0  0  0  0  0  0  0  0  0
   35.7521    9.6455   30.4880 C   0  0  0  0  0  0  0  0  0  0  0  0
   35.5610    8.3394   30.0070 C   0  0  0  0  0  0  0  0  0  0  0  0
   34.2976    7.7423   30.0374 C   0  0  0  0  0  0  0  0  0  0  0  0
   33.1914    8.4361   30.5487 C   0  0  0  0  0  0  0  0  0  0  0  0
   33.3844    9.7250   31.0630 C   0  0  0  0  0  0  0  0  0  0  0  0
   34.6488   10.3217   31.0301 C   0  0  0  0  0  0  0  0  0  0  0  0
   31.8266    7.7928   30.5673 C   0  0  0  0  0  0  0  0  0  0  0  0
   29.1221   18.1749   21.7825 C   0  0  0  0  0  0  0  0  0  0  0  0
   29.0944   18.1829   23.1330 F   0  0  0  0  0  0  0  0  0  0  0  0
   27.9332   18.6489   21.3402 F   0  0  0  0  0  0  0  0  0  0  0  0
   30.0811   19.0411   21.3838 F   0  0  0  0  0  0  0  0  0  0  0  0
   31.6017    7.0003   29.4829 F   0  0  0  0  0  0  0  0  0  0  0  0
   31.6454    6.9950   31.6570 F   0  0  0  0  0  0  0  0  0  0  0  0
   30.8057    8.6939   30.5873 F   0  0  0  0  0  0  0  0  0  0  0  0
   33.3395   12.5332   24.7092 H   0  0  0  0  0  0  0  0  0  0  0  0
   32.8643   10.8871   24.2835 H   0  0  0  0  0  0  0  0  0  0  0  0
   34.0109    9.9582   26.2228 H   0  0  0  0  0  0  0  0  0  0  0  0
   35.1192   10.9450   25.2806 H   0  0  0  0  0  0  0  0  0  0  0  0
   34.7969   12.8632   26.8074 H   0  0  0  0  0  0  0  0  0  0  0  0
   32.9674   10.9819   28.3798 H   0  0  0  0  0  0  0  0  0  0  0  0
   33.4021   12.6208   28.8476 H   0  0  0  0  0  0  0  0  0  0  0  0
   32.3097   13.5488   26.8510 H   0  0  0  0  0  0  0  0  0  0  0  0
   31.2059   12.5387   27.7868 H   0  0  0  0  0  0  0  0  0  0  0  0
   35.7011   10.3267   28.0095 H   0  0  0  0  0  0  0  0  0  0  0  0
   30.7398   11.7465   24.1511 H   0  0  0  0  0  0  0  0  0  0  0  0
   31.0050   13.3207   24.8903 H   0  0  0  0  0  0  0  0  0  0  0  0
   29.3684   12.4983   26.7679 H   0  0  0  0  0  0  0  0  0  0  0  0
   29.0233   11.1207   25.7243 H   0  0  0  0  0  0  0  0  0  0  0  0
   28.7607   14.0707   24.9424 H   0  0  0  0  0  0  0  0  0  0  0  0
   27.4323   13.1205   25.6106 H   0  0  0  0  0  0  0  0  0  0  0  0
   28.7713   11.9902   23.1547 H   0  0  0  0  0  0  0  0  0  0  0  0
   27.1312   11.8221   23.7232 H   0  0  0  0  0  0  0  0  0  0  0  0
   23.9620   13.1340   19.7569 H   0  0  0  0  0  0  0  0  0  0  0  0
   25.2075   11.7037   18.1587 H   0  0  0  0  0  0  0  0  0  0  0  0
   27.5788   11.1236   18.5679 H   0  0  0  0  0  0  0  0  0  0  0  0
   28.7568   11.9639   20.5893 H   0  0  0  0  0  0  0  0  0  0  0  0
   26.8827   15.4901   24.8438 H   0  0  0  0  0  0  0  0  0  0  0  0
   24.6792   16.5568   25.1745 H   0  0  0  0  0  0  0  0  0  0  0  0
   22.8223   16.1417   23.5907 H   0  0  0  0  0  0  0  0  0  0  0  0
   23.1421   14.6550   21.6307 H   0  0  0  0  0  0  0  0  0  0  0  0
   27.4124   15.9444   21.3358 H   0  0  0  0  0  0  0  0  0  0  0  0
   30.3768   16.4455   21.5419 H   0  0  0  0  0  0  0  0  0  0  0  0
   29.3817   16.8154   20.1335 H   0  0  0  0  0  0  0  0  0  0  0  0
   37.9652    8.8612   31.7838 H   0  0  0  0  0  0  0  0  0  0  0  0
   40.1839    9.9221   31.8121 H   0  0  0  0  0  0  0  0  0  0  0  0
   40.5956   11.9986   30.5194 H   0  0  0  0  0  0  0  0  0  0  0  0
   38.7823   12.9837   29.1483 H   0  0  0  0  0  0  0  0  0  0  0  0
   36.3962    7.7837   29.5872 H   0  0  0  0  0  0  0  0  0  0  0  0
   34.1744    6.7303   29.6504 H   0  0  0  0  0  0  0  0  0  0  0  0
   32.5462   10.2828   31.4753 H   0  0  0  0  0  0  0  0  0  0  0  0
   34.7633   11.3331   31.4237 H   0  0  0  0  0  0  0  0  0  0  0  0
  1  8  1  0
  8  9  1  0
  9 10  1  0
 10 11  1  0
 11 12  1  0
 12 13  1  0
 12 14  1  0
 14 15  2  0
 15 16  1  0
 16 17  1  0
 17 12  1  0
 16 18  2  0
 18 19  1  0
 19 20  2  0
 20 21  1  0
 21 17  2  0
 14 22  1  0
 22 23  2  0
 23 24  1  0
 24 25  2  0
 25 15  1  0
 13 26  2  0
 13 27  1  0
 27 28  1  0
  7 29  1  0
 29 30  1  0
 29 31  2  0
 30 32  1  0
 32 33  2  0
 33 34  1  0
 34 35  2  0
 35 36  1  0
 36 30  2  0
 32 37  1  0
 37 38  2  0
 38 39  1  0
 39 40  2  0
 40 41  1  0
 41 42  2  0
 42 37  1  0
 40 43  1  0
 28 44  1  0
  1  2  1  0
  2  3  1  0
 44 45  1  0
  3  4  1  0
 44 46  1  0
  4  5  1  0
 44 47  1  0
  5  6  1  0
 43 48  1  0
  6  1  1  0
 43 49  1  0
  4  7  1  0
 43 50  1  0
  2 51  1  0
  2 52  1  0
  3 53  1  0
  3 54  1  0
  4 55  1  0
  5 56  1  0
  5 57  1  0
  6 58  1  0
  6 59  1  0
  7 60  1  0
  8 61  1  0
  8 62  1  0
  9 63  1  0
  9 64  1  0
 10 65  1  0
 10 66  1  0
 11 67  1  0
 11 68  1  0
 18 69  1  0
 19 70  1  0
 20 71  1  0
 21 72  1  0
 22 73  1  0
 23 74  1  0
 24 75  1  0
 25 76  1  0
 27 77  1  0
 28 78  1  0
 28 79  1  0
 33 80  1  0
 34 81  1  0
 35 82  1  0
 36 83  1  0
 38 84  1  0
 39 85  1  0
 41 86  1  0
 42 87  1  0
M  END
> <Uni-Dock RESULT> 
ENERGY=   -4.308  LOWER_BOUND=    6.303  UPPER_BOUND=   10.202
INTER + INTRA:          -4.308
INTER:                  -4.308
INTRA:                   0.000
UNBOUND:                 0.000

$$$$

     RDKit          3D

 87 92  0  0  0  0  0  0  0  0999 V2000
   30.7474   11.9474   24.2447 N   0  0  0  0  0  0  0  0  0  0  0  0
   32.0846   12.1859   23.6684 C   0  0  0  0  0  0  0  0  0  0  0  0
   33.2071   11.7143   24.5907 C   0  0  0  0  0  0  0  0  0  0  0  0
   33.0967   12.4028   25.9481 C   0  0  0  0  0  0  0  0  0  0  0  0
   31.7108   12.1413   26.5313 C   0  0  0  0  0  0  0  0  0  0  0  0
   30.6254   12.6031   25.5629 C   0  0  0  0  0  0  0  0  0  0  0  0
   34.1452   11.9604   26.8556 N   0  0  0  0  0  0  0  0  0  0  0  0
   29.7297   12.4685   23.3041 C   0  0  0  0  0  0  0  0  0  0  0  0
   28.2956   12.0085   23.6157 C   0  0  0  0  0  0  0  0  0  0  0  0
   27.2499   12.8109   22.8259 C   0  0  0  0  0  0  0  0  0  0  0  0
   27.1957   12.4824   21.3265 C   0  0  0  0  0  0  0  0  0  0  0  0
   26.7094   13.6530   20.4279 C   0  0  0  0  0  0  0  0  0  0  0  0
   27.7119   14.8400   20.4527 C   0  0  0  0  0  0  0  0  0  0  0  0
   25.2598   14.0869   20.7204 C   0  0  0  0  0  0  0  0  0  0  0  0
   24.4390   13.8371   19.5970 C   0  0  0  0  0  0  0  0  0  0  0  0
   25.2381   13.2626   18.5366 C   0  0  0  0  0  0  0  0  0  0  0  0
   26.5740   13.1456   18.9765 C   0  0  0  0  0  0  0  0  0  0  0  0
   24.8839   12.8759   17.2540 C   0  0  0  0  0  0  0  0  0  0  0  0
   25.8773   12.3724   16.4091 C   0  0  0  0  0  0  0  0  0  0  0  0
   27.2057   12.2589   16.8502 C   0  0  0  0  0  0  0  0  0  0  0  0
   27.5647   12.6458   18.1416 C   0  0  0  0  0  0  0  0  0  0  0  0
   24.7414   14.6991   21.8563 C   0  0  0  0  0  0  0  0  0  0  0  0
   23.3860   15.0349   21.8737 C   0  0  0  0  0  0  0  0  0  0  0  0
   22.5675   14.7682   20.7670 C   0  0  0  0  0  0  0  0  0  0  0  0
   23.0925   14.1704   19.6173 C   0  0  0  0  0  0  0  0  0  0  0  0
   28.8554   14.7295   20.8980 O   0  0  0  0  0  0  0  0  0  0  0  0
   27.2715   16.0221   19.8949 N   0  0  0  0  0  0  0  0  0  0  0  0
   28.0976   17.2301   19.8477 C   0  0  0  0  0  0  0  0  0  0  0  0
   34.5192   12.7206   27.9452 C   0  0  0  0  0  0  0  0  0  0  0  0
   35.4935   12.1054   28.8871 C   0  0  0  0  0  0  0  0  0  0  0  0
   34.1270   13.8647   28.1465 O   0  0  0  0  0  0  0  0  0  0  0  0
   35.3595   10.8031   29.4187 C   0  0  0  0  0  0  0  0  0  0  0  0
   36.3664   10.3448   30.2925 C   0  0  0  0  0  0  0  0  0  0  0  0
   37.4518   11.1509   30.6439 C   0  0  0  0  0  0  0  0  0  0  0  0
   37.5536   12.4404   30.1340 C   0  0  0  0  0  0  0  0  0  0  0  0
   36.5783   12.9182   29.2593 C   0  0  0  0  0  0  0  0  0  0  0  0
   34.2072    9.9274   29.1500 C   0  0  0  0  0  0  0  0  0  0  0  0
   34.3719    8.7063   28.4749 C   0  0  0  0  0  0  0  0  0  0  0  0
   33.2719    7.8947   28.1833 C   0  0  0  0  0  0  0  0  0  0  0  0
   31.9778    8.2834   28.5581 C   0  0  0  0  0  0  0  0  0  0  0  0
   31.8131    9.4826   29.2638 C   0  0  0  0  0  0  0  0  0  0  0  0
   32.9145   10.2944   29.5531 C   0  0  0  0  0  0  0  0  0  0  0  0
   30.7915    7.4107   28.2294 C   0  0  0  0  0  0  0  0  0  0  0  0
   27.4654   18.4462   20.5205 C   0  0  0  0  0  0  0  0  0  0  0  0
   27.2167   18.2251   21.8296 F   0  0  0  0  0  0  0  0  0  0  0  0
   26.2926   18.7650   19.9233 F   0  0  0  0  0  0  0  0  0  0  0  0
   28.2761   19.5250   20.4304 F   0  0  0  0  0  0  0  0  0  0  0  0
   30.9156    6.7816   27.0280 F   0  0  0  0  0  0  0  0  0  0  0  0
   30.6042    6.4239   29.1503 F   0  0  0  0  0  0  0  0  0  0  0  0
   29.6168    8.0972   28.1701 F   0  0  0  0  0  0  0  0  0  0  0  0
   32.2246   13.2508   23.4423 H   0  0  0  0  0  0  0  0  0  0  0  0
   32.1767   11.6397   22.7219 H   0  0  0  0  0  0  0  0  0  0  0  0
   33.1587   10.6241   24.7074 H   0  0  0  0  0  0  0  0  0  0  0  0
   34.1771   11.9368   24.1332 H   0  0  0  0  0  0  0  0  0  0  0  0
   33.2198   13.4854   25.8066 H   0  0  0  0  0  0  0  0  0  0  0  0
   31.5882   11.0710   26.7380 H   0  0  0  0  0  0  0  0  0  0  0  0
   31.5918   12.6607   27.4906 H   0  0  0  0  0  0  0  0  0  0  0  0
   30.6715   13.6948   25.4597 H   0  0  0  0  0  0  0  0  0  0  0  0
   29.6634   12.3614   26.0254 H   0  0  0  0  0  0  0  0  0  0  0  0
   34.4213   10.9896   26.8186 H   0  0  0  0  0  0  0  0  0  0  0  0
   29.9710   12.1122   22.2962 H   0  0  0  0  0  0  0  0  0  0  0  0
   29.7802   13.5637   23.2718 H   0  0  0  0  0  0  0  0  0  0  0  0
   28.0655   12.1602   24.6754 H   0  0  0  0  0  0  0  0  0  0  0  0
   28.1882   10.9354   23.4141 H   0  0  0  0  0  0  0  0  0  0  0  0
   27.4514   13.8780   22.9883 H   0  0  0  0  0  0  0  0  0  0  0  0
   26.2578   12.6065   23.2583 H   0  0  0  0  0  0  0  0  0  0  0  0
   28.1842   12.1591   20.9801 H   0  0  0  0  0  0  0  0  0  0  0  0
   26.5442   11.6064   21.1953 H   0  0  0  0  0  0  0  0  0  0  0  0
   23.8624   12.9651   16.8989 H   0  0  0  0  0  0  0  0  0  0  0  0
   25.6209   12.0677   15.3976 H   0  0  0  0  0  0  0  0  0  0  0  0
   27.9617   11.8647   16.1763 H   0  0  0  0  0  0  0  0  0  0  0  0
   28.5942   12.5564   18.4788 H   0  0  0  0  0  0  0  0  0  0  0  0
   25.3619   14.9321   22.7162 H   0  0  0  0  0  0  0  0  0  0  0  0
   22.9615   15.5146   22.7529 H   0  0  0  0  0  0  0  0  0  0  0  0
   21.5146   15.0402   20.8008 H   0  0  0  0  0  0  0  0  0  0  0  0
   22.4508   13.9814   18.7620 H   0  0  0  0  0  0  0  0  0  0  0  0
   26.3511   16.0497   19.4657 H   0  0  0  0  0  0  0  0  0  0  0  0
   29.0732   17.0355   20.3023 H   0  0  0  0  0  0  0  0  0  0  0  0
   28.2664   17.4484   18.7892 H   0  0  0  0  0  0  0  0  0  0  0  0
   36.2931    9.3508   30.7339 H   0  0  0  0  0  0  0  0  0  0  0  0
   38.2089   10.7743   31.3271 H   0  0  0  0  0  0  0  0  0  0  0  0
   38.3869   13.0762   30.4203 H   0  0  0  0  0  0  0  0  0  0  0  0
   36.6573   13.9320   28.8662 H   0  0  0  0  0  0  0  0  0  0  0  0
   35.3612    8.3877   28.1548 H   0  0  0  0  0  0  0  0  0  0  0  0
   33.4258    6.9556   27.6510 H   0  0  0  0  0  0  0  0  0  0  0  0
   30.8218    9.8040   29.5762 H   0  0  0  0  0  0  0  0  0  0  0  0
   32.7512   11.2303   30.0900 H   0  0  0  0  0  0  0  0  0  0  0  0
  1  8  1  0
  8  9  1  0
  9 10  1  0
 10 11  1  0
 11 12  1  0
 12 13  1  0
 12 14  1  0
 14 15  2  0
 15 16  1  0
 16 17  1  0
 17 12  1  0
 16 18  2  0
 18 19  1  0
 19 20  2  0
 20 21  1  0
 21 17  2  0
 14 22  1  0
 22 23  2  0
 23 24  1  0
 24 25  2  0
 25 15  1  0
 13 26  2  0
 13 27  1  0
 27 28  1  0
  7 29  1  0
 29 30  1  0
 29 31  2  0
 30 32  1  0
 32 33  2  0
 33 34  1  0
 34 35  2  0
 35 36  1  0
 36 30  2  0
 32 37  1  0
 37 38  2  0
 38 39  1  0
 39 40  2  0
 40 41  1  0
 41 42  2  0
 42 37  1  0
 40 43  1  0
 28 44  1  0
  1  2  1  0
  2  3  1  0
 44 45  1  0
  3  4  1  0
 44 46  1  0
  4  5  1  0
 44 47  1  0
  5  6  1  0
 43 48  1  0
  6  1  1  0
 43 49  1  0
  4  7  1  0
 43 50  1  0
  2 51  1  0
  2 52  1  0
  3 53  1  0
  3 54  1  0
  4 55  1  0
  5 56  1  0
  5 57  1  0
  6 58  1  0
  6 59  1  0
  7 60  1  0
  8 61  1  0
  8 62  1  0
  9 63  1  0
  9 64  1  0
 10 65  1  0
 10 66  1  0
 11 67  1  0
 11 68  1  0
 18 69  1  0
 19 70  1  0
 20 71  1  0
 21 72  1  0
 22 73  1  0
 23 74  1  0
 24 75  1  0
 25 76  1  0
 27 77  1  0
 28 78  1  0
 28 79  1  0
 33 80  1  0
 34 81  1  0
 35 82  1  0
 36 83  1  0
 38 84  1  0
 39 85  1  0
 41 86  1  0
 42 87  1  0
M  END
> <Uni-Dock RESULT> 
ENERGY=   -4.077  LOWER_BOUND=    6.418  UPPER_BOUND=   10.378
INTER + INTRA:          -4.077
INTER:                  -4.077
INTRA:                   0.000
UNBOUND:                 0.000

$$$$

     RDKit          3D

 87 92  0  0  0  0  0  0  0  0999 V2000
   28.3127    9.9208   27.8455 N   0  0  0  0  0  0  0  0  0  0  0  0
   26.9272   10.0806   28.3269 C   0  0  0  0  0  0  0  0  0  0  0  0
   26.1857   11.2015   27.6008 C   0  0  0  0  0  0  0  0  0  0  0  0
   26.9429   12.5176   27.7528 C   0  0  0  0  0  0  0  0  0  0  0  0
   28.3708   12.3356   27.2456 C   0  0  0  0  0  0  0  0  0  0  0  0
   29.0591   11.1886   27.9804 C   0  0  0  0  0  0  0  0  0  0  0  0
   26.2679   13.6029   27.0564 N   0  0  0  0  0  0  0  0  0  0  0  0
   28.9620    8.8448   28.6283 C   0  0  0  0  0  0  0  0  0  0  0  0
   30.2903    8.3506   28.0312 C   0  0  0  0  0  0  0  0  0  0  0  0
   31.0761    7.4770   29.0214 C   0  0  0  0  0  0  0  0  0  0  0  0
   30.4795    6.0803   29.2497 C   0  0  0  0  0  0  0  0  0  0  0  0
   30.7876    5.4684   30.6443 C   0  0  0  0  0  0  0  0  0  0  0  0
   30.1157    6.2860   31.7822 C   0  0  0  0  0  0  0  0  0  0  0  0
   32.2900    5.2261   30.8874 C   0  0  0  0  0  0  0  0  0  0  0  0
   32.5459    3.8427   31.0242 C   0  0  0  0  0  0  0  0  0  0  0  0
   31.3046    3.1100   30.8994 C   0  0  0  0  0  0  0  0  0  0  0  0
   30.2494    4.0223   30.6853 C   0  0  0  0  0  0  0  0  0  0  0  0
   31.0521    1.7502   30.9839 C   0  0  0  0  0  0  0  0  0  0  0  0
   29.7328    1.3059   30.8559 C   0  0  0  0  0  0  0  0  0  0  0  0
   28.6854    2.2171   30.6443 C   0  0  0  0  0  0  0  0  0  0  0  0
   28.9371    3.5866   30.5569 C   0  0  0  0  0  0  0  0  0  0  0  0
   33.3146    6.1553   31.0313 C   0  0  0  0  0  0  0  0  0  0  0  0
   34.6066    5.6899   31.2850 C   0  0  0  0  0  0  0  0  0  0  0  0
   34.8638    4.3163   31.4003 C   0  0  0  0  0  0  0  0  0  0  0  0
   33.8305    3.3828   31.2750 C   0  0  0  0  0  0  0  0  0  0  0  0
   29.2372    7.1221   31.5646 O   0  0  0  0  0  0  0  0  0  0  0  0
   30.5173    5.9866   33.0673 N   0  0  0  0  0  0  0  0  0  0  0  0
   29.9805    6.6736   34.2436 C   0  0  0  0  0  0  0  0  0  0  0  0
   26.4975   14.9224   27.3902 C   0  0  0  0  0  0  0  0  0  0  0  0
   25.8703   15.9518   26.5174 C   0  0  0  0  0  0  0  0  0  0  0  0
   27.1440   15.2762   28.3700 O   0  0  0  0  0  0  0  0  0  0  0  0
   25.9540   15.9447   25.1069 C   0  0  0  0  0  0  0  0  0  0  0  0
   25.3003   16.9788   24.4060 C   0  0  0  0  0  0  0  0  0  0  0  0
   24.6095   17.9920   25.0749 C   0  0  0  0  0  0  0  0  0  0  0  0
   24.5610   17.9997   26.4645 C   0  0  0  0  0  0  0  0  0  0  0  0
   25.1894   16.9846   27.1850 C   0  0  0  0  0  0  0  0  0  0  0  0
   26.7243   14.9515   24.3408 C   0  0  0  0  0  0  0  0  0  0  0  0
   26.0839   14.0739   23.4499 C   0  0  0  0  0  0  0  0  0  0  0  0
   26.8101   13.1033   22.7540 C   0  0  0  0  0  0  0  0  0  0  0  0
   28.1960   12.9839   22.9314 C   0  0  0  0  0  0  0  0  0  0  0  0
   28.8442   13.8807   23.7910 C   0  0  0  0  0  0  0  0  0  0  0  0
   28.1158   14.8500   24.4880 C   0  0  0  0  0  0  0  0  0  0  0  0
   28.9741   11.9260   22.1883 C   0  0  0  0  0  0  0  0  0  0  0  0
   31.0405    7.3465   35.1124 C   0  0  0  0  0  0  0  0  0  0  0  0
   31.7332    8.2824   34.4276 F   0  0  0  0  0  0  0  0  0  0  0  0
   31.9254    6.4330   35.5775 F   0  0  0  0  0  0  0  0  0  0  0  0
   30.4767    7.9508   36.1829 F   0  0  0  0  0  0  0  0  0  0  0  0
   28.2765   10.7664   22.0365 F   0  0  0  0  0  0  0  0  0  0  0  0
   29.3166   12.3234   20.9307 F   0  0  0  0  0  0  0  0  0  0  0  0
   30.1390   11.5812   22.8038 F   0  0  0  0  0  0  0  0  0  0  0  0
   26.9126   10.2766   29.4068 H   0  0  0  0  0  0  0  0  0  0  0  0
   26.3732    9.1490   28.1599 H   0  0  0  0  0  0  0  0  0  0  0  0
   26.0703   10.9443   26.5402 H   0  0  0  0  0  0  0  0  0  0  0  0
   25.1745   11.2992   28.0104 H   0  0  0  0  0  0  0  0  0  0  0  0
   26.9798   12.7834   28.8182 H   0  0  0  0  0  0  0  0  0  0  0  0
   28.3612   12.1290   26.1683 H   0  0  0  0  0  0  0  0  0  0  0  0
   28.9491   13.2582   27.3819 H   0  0  0  0  0  0  0  0  0  0  0  0
   29.1819   11.4566   29.0376 H   0  0  0  0  0  0  0  0  0  0  0  0
   30.0614   11.0927   27.5515 H   0  0  0  0  0  0  0  0  0  0  0  0
   25.8224   13.3918   26.1749 H   0  0  0  0  0  0  0  0  0  0  0  0
   28.2850    7.9838   28.6663 H   0  0  0  0  0  0  0  0  0  0  0  0
   29.1092    9.1760   29.6635 H   0  0  0  0  0  0  0  0  0  0  0  0
   30.9389    9.1975   27.7842 H   0  0  0  0  0  0  0  0  0  0  0  0
   30.1074    7.8032   27.0981 H   0  0  0  0  0  0  0  0  0  0  0  0
   31.1578    8.0297   29.9666 H   0  0  0  0  0  0  0  0  0  0  0  0
   32.1008    7.3541   28.6369 H   0  0  0  0  0  0  0  0  0  0  0  0
   29.3926    6.1122   29.1110 H   0  0  0  0  0  0  0  0  0  0  0  0
   30.8517    5.4190   28.4538 H   0  0  0  0  0  0  0  0  0  0  0  0
   31.8517    1.0366   31.1541 H   0  0  0  0  0  0  0  0  0  0  0  0
   29.5130    0.2434   30.9237 H   0  0  0  0  0  0  0  0  0  0  0  0
   27.6673    1.8494   30.5475 H   0  0  0  0  0  0  0  0  0  0  0  0
   28.1233    4.2883   30.3933 H   0  0  0  0  0  0  0  0  0  0  0  0
   33.1336    7.2237   30.9652 H   0  0  0  0  0  0  0  0  0  0  0  0
   35.4218    6.4008   31.4010 H   0  0  0  0  0  0  0  0  0  0  0  0
   35.8774    3.9756   31.6005 H   0  0  0  0  0  0  0  0  0  0  0  0
   34.0407    2.3227   31.3796 H   0  0  0  0  0  0  0  0  0  0  0  0
   31.1854    5.2348   33.2106 H   0  0  0  0  0  0  0  0  0  0  0  0
   29.2413    7.4195   33.9377 H   0  0  0  0  0  0  0  0  0  0  0  0
   29.4569    5.9152   34.8329 H   0  0  0  0  0  0  0  0  0  0  0  0
   25.3520   17.0160   23.3178 H   0  0  0  0  0  0  0  0  0  0  0  0
   24.1222   18.7818   24.5088 H   0  0  0  0  0  0  0  0  0  0  0  0
   24.0402   18.7968   26.9879 H   0  0  0  0  0  0  0  0  0  0  0  0
   25.1552   16.9968   28.2746 H   0  0  0  0  0  0  0  0  0  0  0  0
   25.0075   14.1300   23.3062 H   0  0  0  0  0  0  0  0  0  0  0  0
   26.2880   12.4291   22.0745 H   0  0  0  0  0  0  0  0  0  0  0  0
   29.9200   13.8180   23.9399 H   0  0  0  0  0  0  0  0  0  0  0  0
   28.6476   15.5232   25.1624 H   0  0  0  0  0  0  0  0  0  0  0  0
  1  8  1  0
  8  9  1  0
  9 10  1  0
 10 11  1  0
 11 12  1  0
 12 13  1  0
 12 14  1  0
 14 15  2  0
 15 16  1  0
 16 17  1  0
 17 12  1  0
 16 18  2  0
 18 19  1  0
 19 20  2  0
 20 21  1  0
 21 17  2  0
 14 22  1  0
 22 23  2  0
 23 24  1  0
 24 25  2  0
 25 15  1  0
 13 26  2  0
 13 27  1  0
 27 28  1  0
  7 29  1  0
 29 30  1  0
 29 31  2  0
 30 32  1  0
 32 33  2  0
 33 34  1  0
 34 35  2  0
 35 36  1  0
 36 30  2  0
 32 37  1  0
 37 38  2  0
 38 39  1  0
 39 40  2  0
 40 41  1  0
 41 42  2  0
 42 37  1  0
 40 43  1  0
 28 44  1  0
  1  2  1  0
  2  3  1  0
 44 45  1  0
  3  4  1  0
 44 46  1  0
  4  5  1  0
 44 47  1  0
  5  6  1  0
 43 48  1  0
  6  1  1  0
 43 49  1  0
  4  7  1  0
 43 50  1  0
  2 51  1  0
  2 52  1  0
  3 53  1  0
  3 54  1  0
  4 55  1  0
  5 56  1  0
  5 57  1  0
  6 58  1  0
  6 59  1  0
  7 60  1  0
  8 61  1  0
  8 62  1  0
  9 63  1  0
  9 64  1  0
 10 65  1  0
 10 66  1  0
 11 67  1  0
 11 68  1  0
 18 69  1  0
 19 70  1  0
 20 71  1  0
 21 72  1  0
 22 73  1  0
 23 74  1  0
 24 75  1  0
 25 76  1  0
 27 77  1  0
 28 78  1  0
 28 79  1  0
 33 80  1  0
 34 81  1  0
 35 82  1  0
 36 83  1  0
 38 84  1  0
 39 85  1  0
 41 86  1  0
 42 87  1  0
M  END
> <Uni-Dock RESULT> 
ENERGY=   -3.996  LOWER_BOUND=    5.554  UPPER_BOUND=    7.959
INTER + INTRA:          -3.996
INTER:                  -3.996
INTRA:                   0.000
UNBOUND:                 0.000

$$$$

     RDKit          3D

 87 92  0  0  0  0  0  0  0  0999 V2000
   29.2264    6.5681   30.3709 N   0  0  0  0  0  0  0  0  0  0  0  0
   29.5023    5.3061   29.6581 C   0  0  0  0  0  0  0  0  0  0  0  0
   28.3820    4.2827   29.8341 C   0  0  0  0  0  0  0  0  0  0  0  0
   28.1542    4.0022   31.3167 C   0  0  0  0  0  0  0  0  0  0  0  0
   27.8652    5.3165   32.0367 C   0  0  0  0  0  0  0  0  0  0  0  0
   28.9976    6.3137   31.8081 C   0  0  0  0  0  0  0  0  0  0  0  0
   27.0794    3.0413   31.5170 N   0  0  0  0  0  0  0  0  0  0  0  0
   30.3768    7.4796   30.1768 C   0  0  0  0  0  0  0  0  0  0  0  0
   30.0985    8.9352   30.5879 C   0  0  0  0  0  0  0  0  0  0  0  0
   31.3885    9.7660   30.6708 C   0  0  0  0  0  0  0  0  0  0  0  0
   32.0144   10.1062   29.3101 C   0  0  0  0  0  0  0  0  0  0  0  0
   33.5547   10.3084   29.3422 C   0  0  0  0  0  0  0  0  0  0  0  0
   34.2914    8.9893   29.7051 C   0  0  0  0  0  0  0  0  0  0  0  0
   33.9968   11.5007   30.2129 C   0  0  0  0  0  0  0  0  0  0  0  0
   34.6081   12.4913   29.4109 C   0  0  0  0  0  0  0  0  0  0  0  0
   34.6244   12.0508   28.0329 C   0  0  0  0  0  0  0  0  0  0  0  0
   34.0263   10.7753   27.9486 C   0  0  0  0  0  0  0  0  0  0  0  0
   35.1337   12.6648   26.8999 C   0  0  0  0  0  0  0  0  0  0  0  0
   35.0441   11.9924   25.6776 C   0  0  0  0  0  0  0  0  0  0  0  0
   34.4495   10.7226   25.5982 C   0  0  0  0  0  0  0  0  0  0  0  0
   33.9342   10.1030   26.7370 C   0  0  0  0  0  0  0  0  0  0  0  0
   33.9139   11.6557   31.5924 C   0  0  0  0  0  0  0  0  0  0  0  0
   34.4215   12.8242   32.1643 C   0  0  0  0  0  0  0  0  0  0  0  0
   35.0094   13.8158   31.3662 C   0  0  0  0  0  0  0  0  0  0  0  0
   35.1105   13.6518   29.9813 C   0  0  0  0  0  0  0  0  0  0  0  0
   33.7311    7.8922   29.6827 O   0  0  0  0  0  0  0  0  0  0  0  0
   35.6333    9.1025   30.0038 N   0  0  0  0  0  0  0  0  0  0  0  0
   36.4615    7.9518   30.3697 C   0  0  0  0  0  0  0  0  0  0  0  0
   26.9744    2.3154   32.6863 C   0  0  0  0  0  0  0  0  0  0  0  0
   25.7568    1.4742   32.8441 C   0  0  0  0  0  0  0  0  0  0  0  0
   27.8339    2.3009   33.5604 O   0  0  0  0  0  0  0  0  0  0  0  0
   24.4423    1.9428   32.6226 C   0  0  0  0  0  0  0  0  0  0  0  0
   23.3824    1.0301   32.7993 C   0  0  0  0  0  0  0  0  0  0  0  0
   23.6121   -0.2881   33.2003 C   0  0  0  0  0  0  0  0  0  0  0  0
   24.9099   -0.7250   33.4416 C   0  0  0  0  0  0  0  0  0  0  0  0
   25.9797    0.1519   33.2656 C   0  0  0  0  0  0  0  0  0  0  0  0
   24.1218    3.3356   32.2700 C   0  0  0  0  0  0  0  0  0  0  0  0
   23.5204    3.6473   31.0392 C   0  0  0  0  0  0  0  0  0  0  0  0
   23.2542    4.9735   30.6872 C   0  0  0  0  0  0  0  0  0  0  0  0
   23.5835    6.0234   31.5565 C   0  0  0  0  0  0  0  0  0  0  0  0
   24.1498    5.7148   32.8004 C   0  0  0  0  0  0  0  0  0  0  0  0
   24.4172    4.3874   33.1502 C   0  0  0  0  0  0  0  0  0  0  0  0
   23.3067    7.4547   31.1669 C   0  0  0  0  0  0  0  0  0  0  0  0
   37.1475    8.0820   31.7275 C   0  0  0  0  0  0  0  0  0  0  0  0
   36.2547    8.2230   32.7314 F   0  0  0  0  0  0  0  0  0  0  0  0
   37.9665    9.1603   31.7461 F   0  0  0  0  0  0  0  0  0  0  0  0
   37.9015    6.9917   31.9953 F   0  0  0  0  0  0  0  0  0  0  0  0
   23.4879    7.6843   29.8369 F   0  0  0  0  0  0  0  0  0  0  0  0
   22.0242    7.8262   31.4389 F   0  0  0  0  0  0  0  0  0  0  0  0
   24.1026    8.3526   31.8111 F   0  0  0  0  0  0  0  0  0  0  0  0
   30.4497    4.8684   29.9980 H   0  0  0  0  0  0  0  0  0  0  0  0
   29.6061    5.5082   28.5852 H   0  0  0  0  0  0  0  0  0  0  0  0
   27.4614    4.6557   29.3673 H   0  0  0  0  0  0  0  0  0  0  0  0
   28.6442    3.3566   29.3114 H   0  0  0  0  0  0  0  0  0  0  0  0
   29.0693    3.5644   31.7385 H   0  0  0  0  0  0  0  0  0  0  0  0
   26.9216    5.7419   31.6735 H   0  0  0  0  0  0  0  0  0  0  0  0
   27.7377    5.1465   33.1133 H   0  0  0  0  0  0  0  0  0  0  0  0
   29.9120    5.9407   32.2870 H   0  0  0  0  0  0  0  0  0  0  0  0
   28.7158    7.2377   32.3225 H   0  0  0  0  0  0  0  0  0  0  0  0
   26.2825    3.0903   30.8986 H   0  0  0  0  0  0  0  0  0  0  0  0
   30.6388    7.4893   29.1127 H   0  0  0  0  0  0  0  0  0  0  0  0
   31.2517    7.0926   30.7133 H   0  0  0  0  0  0  0  0  0  0  0  0
   29.6425    8.9727   31.5827 H   0  0  0  0  0  0  0  0  0  0  0  0
   29.3883    9.3979   29.8914 H   0  0  0  0  0  0  0  0  0  0  0  0
   32.0993    9.2216   31.3062 H   0  0  0  0  0  0  0  0  0  0  0  0
   31.1593   10.7104   31.1891 H   0  0  0  0  0  0  0  0  0  0  0  0
   31.7771    9.3201   28.5839 H   0  0  0  0  0  0  0  0  0  0  0  0
   31.5201   11.0106   28.9268 H   0  0  0  0  0  0  0  0  0  0  0  0
   35.6017   13.6425   26.9492 H   0  0  0  0  0  0  0  0  0  0  0  0
   35.4416   12.4549   24.7777 H   0  0  0  0  0  0  0  0  0  0  0  0
   34.3905   10.2182   24.6373 H   0  0  0  0  0  0  0  0  0  0  0  0
   33.4750    9.1200   26.6709 H   0  0  0  0  0  0  0  0  0  0  0  0
   33.4804   10.8917   32.2305 H   0  0  0  0  0  0  0  0  0  0  0  0
   34.3663   12.9643   33.2417 H   0  0  0  0  0  0  0  0  0  0  0  0
   35.4007   14.7174   31.8326 H   0  0  0  0  0  0  0  0  0  0  0  0
   35.5800   14.4213   29.3761 H   0  0  0  0  0  0  0  0  0  0  0  0
   36.0771   10.0136   29.9329 H   0  0  0  0  0  0  0  0  0  0  0  0
   35.8606    7.0380   30.3576 H   0  0  0  0  0  0  0  0  0  0  0  0
   37.2206    7.8558   29.5878 H   0  0  0  0  0  0  0  0  0  0  0  0
   22.3528    1.3561   32.6507 H   0  0  0  0  0  0  0  0  0  0  0  0
   22.7746   -0.9676   33.3374 H   0  0  0  0  0  0  0  0  0  0  0  0
   25.0899   -1.7444   33.7717 H   0  0  0  0  0  0  0  0  0  0  0  0
   26.9956   -0.1916   33.4618 H   0  0  0  0  0  0  0  0  0  0  0  0
   23.2712    2.8557   30.3364 H   0  0  0  0  0  0  0  0  0  0  0  0
   22.7941    5.1893   29.7225 H   0  0  0  0  0  0  0  0  0  0  0  0
   24.4060    6.5084   33.4990 H   0  0  0  0  0  0  0  0  0  0  0  0
   24.8738    4.1809   34.1196 H   0  0  0  0  0  0  0  0  0  0  0  0
  1  8  1  0
  8  9  1  0
  9 10  1  0
 10 11  1  0
 11 12  1  0
 12 13  1  0
 12 14  1  0
 14 15  2  0
 15 16  1  0
 16 17  1  0
 17 12  1  0
 16 18  2  0
 18 19  1  0
 19 20  2  0
 20 21  1  0
 21 17  2  0
 14 22  1  0
 22 23  2  0
 23 24  1  0
 24 25  2  0
 25 15  1  0
 13 26  2  0
 13 27  1  0
 27 28  1  0
  7 29  1  0
 29 30  1  0
 29 31  2  0
 30 32  1  0
 32 33  2  0
 33 34  1  0
 34 35  2  0
 35 36  1  0
 36 30  2  0
 32 37  1  0
 37 38  2  0
 38 39  1  0
 39 40  2  0
 40 41  1  0
 41 42  2  0
 42 37  1  0
 40 43  1  0
 28 44  1  0
  1  2  1  0
  2  3  1  0
 44 45  1  0
  3  4  1  0
 44 46  1  0
  4  5  1  0
 44 47  1  0
  5  6  1  0
 43 48  1  0
  6  1  1  0
 43 49  1  0
  4  7  1  0
 43 50  1  0
  2 51  1  0
  2 52  1  0
  3 53  1  0
  3 54  1  0
  4 55  1  0
  5 56  1  0
  5 57  1  0
  6 58  1  0
  6 59  1  0
  7 60  1  0
  8 61  1  0
  8 62  1  0
  9 63  1  0
  9 64  1  0
 10 65  1  0
 10 66  1  0
 11 67  1  0
 11 68  1  0
 18 69  1  0
 19 70  1  0
 20 71  1  0
 21 72  1  0
 22 73  1  0
 23 74  1  0
 24 75  1  0
 25 76  1  0
 27 77  1  0
 28 78  1  0
 28 79  1  0
 33 80  1  0
 34 81  1  0
 35 82  1  0
 36 83  1  0
 38 84  1  0
 39 85  1  0
 41 86  1  0
 42 87  1  0
M  END
> <Uni-Dock RESULT> 
ENERGY=   -3.966  LOWER_BOUND=    6.124  UPPER_BOUND=   13.575
INTER + INTRA:          -3.966
INTER:                  -3.966
INTRA:                   0.000
UNBOUND:                 0.000

$$$$
