
     RDKit          3D

 87 92  0  0  0  0  0  0  0  0999 V2000
   32.3360   13.8885   26.8650 N   0  0  0  0  0  0  0  0  0  0  0  0
   30.8963   14.1562   27.0276 C   0  0  0  0  0  0  0  0  0  0  0  0
   30.0413   12.9267   26.7291 C   0  0  0  0  0  0  0  0  0  0  0  0
   30.2066   12.4837   25.2689 C   0  0  0  0  0  0  0  0  0  0  0  0
   31.5721   12.8829   24.7004 C   0  0  0  0  0  0  0  0  0  0  0  0
   32.6328   12.9212   25.7941 C   0  0  0  0  0  0  0  0  0  0  0  0
   29.1495   13.0235   24.4237 N   0  0  0  0  0  0  0  0  0  0  0  0
   33.0887   15.1464   26.7214 C   0  0  0  0  0  0  0  0  0  0  0  0
   34.5789   14.9955   27.0635 C   0  0  0  0  0  0  0  0  0  0  0  0
   34.9422   15.2565   28.5321 C   0  0  0  0  0  0  0  0  0  0  0  0
   34.2442   14.3517   29.5566 C   0  0  0  0  0  0  0  0  0  0  0  0
   34.5965   14.6352   31.0472 C   0  0  0  0  0  0  0  0  0  0  0  0
   34.1333   16.0461   31.5020 C   0  0  0  0  0  0  0  0  0  0  0  0
   33.8891   13.5730   31.9166 C   0  0  0  0  0  0  0  0  0  0  0  0
   34.8367   12.7577   32.5677 C   0  0  0  0  0  0  0  0  0  0  0  0
   36.1665   13.2143   32.2332 C   0  0  0  0  0  0  0  0  0  0  0  0
   36.0740   14.3349   31.3782 C   0  0  0  0  0  0  0  0  0  0  0  0
   37.4018   12.7441   32.6514 C   0  0  0  0  0  0  0  0  0  0  0  0
   38.5525   13.4129   32.2267 C   0  0  0  0  0  0  0  0  0  0  0  0
   38.4600   14.5510   31.4126 C   0  0  0  0  0  0  0  0  0  0  0  0
   37.2169   15.0243   30.9885 C   0  0  0  0  0  0  0  0  0  0  0  0
   32.5248   13.3807   32.1001 C   0  0  0  0  0  0  0  0  0  0  0  0
   32.1153   12.3481   32.9440 C   0  0  0  0  0  0  0  0  0  0  0  0
   33.0565   11.5270   33.5868 C   0  0  0  0  0  0  0  0  0  0  0  0
   34.4252   11.7314   33.4013 C   0  0  0  0  0  0  0  0  0  0  0  0
   33.3090   16.7133   30.8767 O   0  0  0  0  0  0  0  0  0  0  0  0
   34.6624   16.5046   32.6972 N   0  0  0  0  0  0  0  0  0  0  0  0
   34.1896   17.7421   33.3156 C   0  0  0  0  0  0  0  0  0  0  0  0
   27.9691   12.3536   24.1962 C   0  0  0  0  0  0  0  0  0  0  0  0
   27.0340   13.0955   23.3276 C   0  0  0  0  0  0  0  0  0  0  0  0
   27.6692   11.2542   24.6403 O   0  0  0  0  0  0  0  0  0  0  0  0
   27.1187   12.9831   21.9268 C   0  0  0  0  0  0  0  0  0  0  0  0
   26.2281   13.7497   21.1569 C   0  0  0  0  0  0  0  0  0  0  0  0
   25.2857   14.5881   21.7667 C   0  0  0  0  0  0  0  0  0  0  0  0
   25.2165   14.6767   23.1558 C   0  0  0  0  0  0  0  0  0  0  0  0
   26.0895   13.9295   23.9427 C   0  0  0  0  0  0  0  0  0  0  0  0
   28.0722   12.0839   21.2622 C   0  0  0  0  0  0  0  0  0  0  0  0
   27.7086   10.7603   20.9723 C   0  0  0  0  0  0  0  0  0  0  0  0
   28.6010    9.8961   20.3323 C   0  0  0  0  0  0  0  0  0  0  0  0
   29.8797   10.3374   19.9598 C   0  0  0  0  0  0  0  0  0  0  0  0
   30.2511   11.6566   20.2604 C   0  0  0  0  0  0  0  0  0  0  0  0
   29.3555   12.5205   20.8994 C   0  0  0  0  0  0  0  0  0  0  0  0
   30.8375    9.3922   19.2729 C   0  0  0  0  0  0  0  0  0  0  0  0
   33.0704   17.5525   34.3457 C   0  0  0  0  0  0  0  0  0  0  0  0
   33.5115   16.8202   35.4030 F   0  0  0  0  0  0  0  0  0  0  0  0
   32.6714   18.7516   34.8322 F   0  0  0  0  0  0  0  0  0  0  0  0
   31.9853   16.9287   33.8339 F   0  0  0  0  0  0  0  0  0  0  0  0
   31.3613    8.4635   20.1193 F   0  0  0  0  0  0  0  0  0  0  0  0
   31.9031   10.0259   18.7023 F   0  0  0  0  0  0  0  0  0  0  0  0
   30.2440    8.6885   18.2658 F   0  0  0  0  0  0  0  0  0  0  0  0
   30.7156   14.4756   28.0611 H   0  0  0  0  0  0  0  0  0  0  0  0
   30.5707   14.9761   26.3700 H   0  0  0  0  0  0  0  0  0  0  0  0
   28.9912   13.1273   26.9690 H   0  0  0  0  0  0  0  0  0  0  0  0
   30.3605   12.1108   27.3909 H   0  0  0  0  0  0  0  0  0  0  0  0
   30.1177   11.3908   25.2410 H   0  0  0  0  0  0  0  0  0  0  0  0
   31.5203   13.8658   24.2131 H   0  0  0  0  0  0  0  0  0  0  0  0
   31.8631   12.1735   23.9162 H   0  0  0  0  0  0  0  0  0  0  0  0
   32.7057   11.9275   26.2532 H   0  0  0  0  0  0  0  0  0  0  0  0
   33.6096   13.1023   25.3303 H   0  0  0  0  0  0  0  0  0  0  0  0
   29.2189   13.9832   24.1121 H   0  0  0  0  0  0  0  0  0  0  0  0
   32.9841   15.5213   25.6950 H   0  0  0  0  0  0  0  0  0  0  0  0
   32.6672   15.9212   27.3730 H   0  0  0  0  0  0  0  0  0  0  0  0
   35.1381   15.7217   26.4558 H   0  0  0  0  0  0  0  0  0  0  0  0
   34.9654   14.0113   26.7716 H   0  0  0  0  0  0  0  0  0  0  0  0
   36.0223   15.1198   28.5981 H   0  0  0  0  0  0  0  0  0  0  0  0
   34.7445   16.3062   28.7589 H   0  0  0  0  0  0  0  0  0  0  0  0
   34.4783   13.3089   29.3101 H   0  0  0  0  0  0  0  0  0  0  0  0
   33.1616   14.4563   29.4339 H   0  0  0  0  0  0  0  0  0  0  0  0
   37.4839   11.8812   33.3026 H   0  0  0  0  0  0  0  0  0  0  0  0
   39.5296   13.0541   32.5415 H   0  0  0  0  0  0  0  0  0  0  0  0
   39.3679   15.0659   31.1082 H   0  0  0  0  0  0  0  0  0  0  0  0
   37.1616   15.9171   30.3737 H   0  0  0  0  0  0  0  0  0  0  0  0
   31.7911   14.0166   31.6095 H   0  0  0  0  0  0  0  0  0  0  0  0
   31.0555   12.1723   33.1061 H   0  0  0  0  0  0  0  0  0  0  0  0
   32.7146   10.7232   34.2356 H   0  0  0  0  0  0  0  0  0  0  0  0
   35.1447   11.0988   33.9100 H   0  0  0  0  0  0  0  0  0  0  0  0
   35.2326   15.8721   33.2534 H   0  0  0  0  0  0  0  0  0  0  0  0
   33.8455   18.4254   32.5343 H   0  0  0  0  0  0  0  0  0  0  0  0
   35.0576   18.2041   33.8004 H   0  0  0  0  0  0  0  0  0  0  0  0
   26.2623   13.6927   20.0681 H   0  0  0  0  0  0  0  0  0  0  0  0
   24.6067   15.1734   21.1499 H   0  0  0  0  0  0  0  0  0  0  0  0
   24.4805   15.3264   23.6236 H   0  0  0  0  0  0  0  0  0  0  0  0
   26.0365   13.9872   25.0275 H   0  0  0  0  0  0  0  0  0  0  0  0
   26.7253   10.3891   21.2582 H   0  0  0  0  0  0  0  0  0  0  0  0
   28.3004    8.8683   20.1338 H   0  0  0  0  0  0  0  0  0  0  0  0
   31.2427   12.0212   19.9933 H   0  0  0  0  0  0  0  0  0  0  0  0
   29.6569   13.5437   21.1118 H   0  0  0  0  0  0  0  0  0  0  0  0
  1  8  1  0
  8  9  1  0
  9 10  1  0
 10 11  1  0
 11 12  1  0
 12 13  1  0
 12 14  1  0
 14 15  2  0
 15 16  1  0
 16 17  1  0
 17 12  1  0
 16 18  2  0
 18 19  1  0
 19 20  2  0
 20 21  1  0
 21 17  2  0
 14 22  1  0
 22 23  2  0
 23 24  1  0
 24 25  2  0
 25 15  1  0
 13 26  2  0
 13 27  1  0
 27 28  1  0
  7 29  1  0
 29 30  1  0
 29 31  2  0
 30 32  1  0
 32 33  2  0
 33 34  1  0
 34 35  2  0
 35 36  1  0
 36 30  2  0
 32 37  1  0
 37 38  2  0
 38 39  1  0
 39 40  2  0
 40 41  1  0
 41 42  2  0
 42 37  1  0
 40 43  1  0
 28 44  1  0
  1  2  1  0
  2  3  1  0
 44 45  1  0
  3  4  1  0
 44 46  1  0
  4  5  1  0
 44 47  1  0
  5  6  1  0
 43 48  1  0
  6  1  1  0
 43 49  1  0
  4  7  1  0
 43 50  1  0
  2 51  1  0
  2 52  1  0
  3 53  1  0
  3 54  1  0
  4 55  1  0
  5 56  1  0
  5 57  1  0
  6 58  1  0
  6 59  1  0
  7 60  1  0
  8 61  1  0
  8 62  1  0
  9 63  1  0
  9 64  1  0
 10 65  1  0
 10 66  1  0
 11 67  1  0
 11 68  1  0
 18 69  1  0
 19 70  1  0
 20 71  1  0
 21 72  1  0
 22 73  1  0
 23 74  1  0
 24 75  1  0
 25 76  1  0
 27 77  1  0
 28 78  1  0
 28 79  1  0
 33 80  1  0
 34 81  1  0
 35 82  1  0
 36 83  1  0
 38 84  1  0
 39 85  1  0
 41 86  1  0
 42 87  1  0
M  END
> <Uni-Dock RESULT> 
ENERGY=   -4.361  LOWER_BOUND=    0.000  UPPER_BOUND=    0.000
INTER + INTRA:          -4.361
INTER:                  -4.361
INTRA:                   0.000
UNBOUND:                 0.000

$$$$

     RDKit          3D

 87 92  0  0  0  0  0  0  0  0999 V2000
   28.6861   11.5787   26.2493 N   0  0  0  0  0  0  0  0  0  0  0  0
   30.1366   11.5613   26.5074 C   0  0  0  0  0  0  0  0  0  0  0  0
   30.6178   10.2048   27.0176 C   0  0  0  0  0  0  0  0  0  0  0  0
   29.9648    9.8606   28.3632 C   0  0  0  0  0  0  0  0  0  0  0  0
   28.5985   10.5345   28.5258 C   0  0  0  0  0  0  0  0  0  0  0  0
   27.9178   10.7294   27.1762 C   0  0  0  0  0  0  0  0  0  0  0  0
   30.8241   10.2234   29.4826 N   0  0  0  0  0  0  0  0  0  0  0  0
   28.1818   12.9614   26.1925 C   0  0  0  0  0  0  0  0  0  0  0  0
   26.8488   13.0826   25.4381 C   0  0  0  0  0  0  0  0  0  0  0  0
   26.9724   13.3484   23.9311 C   0  0  0  0  0  0  0  0  0  0  0  0
   27.7422   12.2869   23.1336 C   0  0  0  0  0  0  0  0  0  0  0  0
   27.8866   12.5718   21.6090 C   0  0  0  0  0  0  0  0  0  0  0  0
   28.7232   13.8495   21.3270 C   0  0  0  0  0  0  0  0  0  0  0  0
   28.5910   11.3604   20.9603 C   0  0  0  0  0  0  0  0  0  0  0  0
   27.7265   10.7142   20.0538 C   0  0  0  0  0  0  0  0  0  0  0  0
   26.4709   11.4283   20.0031 C   0  0  0  0  0  0  0  0  0  0  0  0
   26.5335   12.5445   20.8666 C   0  0  0  0  0  0  0  0  0  0  0  0
   25.3372   11.1847   19.2434 C   0  0  0  0  0  0  0  0  0  0  0  0
   24.2655   12.0766   19.3335 C   0  0  0  0  0  0  0  0  0  0  0  0
   24.3430   13.2083   20.1580 C   0  0  0  0  0  0  0  0  0  0  0  0
   25.4830   13.4536   20.9256 C   0  0  0  0  0  0  0  0  0  0  0  0
   29.8875   10.9051   21.1697 C   0  0  0  0  0  0  0  0  0  0  0  0
   30.3105    9.7803   20.4611 C   0  0  0  0  0  0  0  0  0  0  0  0
   29.4486    9.1277   19.5643 C   0  0  0  0  0  0  0  0  0  0  0  0
   28.1496    9.5957   19.3558 C   0  0  0  0  0  0  0  0  0  0  0  0
   29.4504   14.3726   22.1714 O   0  0  0  0  0  0  0  0  0  0  0  0
   28.6520   14.3515   20.0379 N   0  0  0  0  0  0  0  0  0  0  0  0
   29.5102   15.4508   19.5992 C   0  0  0  0  0  0  0  0  0  0  0  0
   31.7394    9.3512   30.0262 C   0  0  0  0  0  0  0  0  0  0  0  0
   32.5166    9.9365   31.1364 C   0  0  0  0  0  0  0  0  0  0  0  0
   31.9337    8.1979   29.6686 O   0  0  0  0  0  0  0  0  0  0  0  0
   32.0199    9.8988   32.4532 C   0  0  0  0  0  0  0  0  0  0  0  0
   32.7880   10.5128   33.4567 C   0  0  0  0  0  0  0  0  0  0  0  0
   34.0078   11.1315   33.1535 C   0  0  0  0  0  0  0  0  0  0  0  0
   34.4819   11.1492   31.8432 C   0  0  0  0  0  0  0  0  0  0  0  0
   33.7390   10.5503   30.8287 C   0  0  0  0  0  0  0  0  0  0  0  0
   30.7625    9.2246   32.8049 C   0  0  0  0  0  0  0  0  0  0  0  0
   30.7662    7.8689   33.1655 C   0  0  0  0  0  0  0  0  0  0  0  0
   29.5797    7.2165   33.5114 C   0  0  0  0  0  0  0  0  0  0  0  0
   28.3585    7.9073   33.5115 C   0  0  0  0  0  0  0  0  0  0  0  0
   28.3497    9.2598   33.1384 C   0  0  0  0  0  0  0  0  0  0  0  0
   29.5388    9.9114   32.7943 C   0  0  0  0  0  0  0  0  0  0  0  0
   27.0818    7.1897   33.8826 C   0  0  0  0  0  0  0  0  0  0  0  0
   30.8158   15.0105   18.9273 C   0  0  0  0  0  0  0  0  0  0  0  0
   30.5579   14.3333   17.7768 F   0  0  0  0  0  0  0  0  0  0  0  0
   31.5601   16.0914   18.5933 F   0  0  0  0  0  0  0  0  0  0  0  0
   31.5703   14.2131   19.7169 F   0  0  0  0  0  0  0  0  0  0  0  0
   26.6486    6.3441   32.9076 F   0  0  0  0  0  0  0  0  0  0  0  0
   26.0422    8.0368   34.1361 F   0  0  0  0  0  0  0  0  0  0  0  0
   27.2192    6.4273   35.0057 F   0  0  0  0  0  0  0  0  0  0  0  0
   30.6598   11.7986   25.5731 H   0  0  0  0  0  0  0  0  0  0  0  0
   30.4157   12.3302   27.2432 H   0  0  0  0  0  0  0  0  0  0  0  0
   31.7110   10.1924   27.0896 H   0  0  0  0  0  0  0  0  0  0  0  0
   30.3467    9.4384   26.2796 H   0  0  0  0  0  0  0  0  0  0  0  0
   29.8289    8.7727   28.3981 H   0  0  0  0  0  0  0  0  0  0  0  0
   28.7000   11.5086   29.0230 H   0  0  0  0  0  0  0  0  0  0  0  0
   27.9665    9.9255   29.1835 H   0  0  0  0  0  0  0  0  0  0  0  0
   27.7866    9.7499   26.6998 H   0  0  0  0  0  0  0  0  0  0  0  0
   26.9042   11.1113   27.3457 H   0  0  0  0  0  0  0  0  0  0  0  0
   30.8567   11.1906   29.7766 H   0  0  0  0  0  0  0  0  0  0  0  0
   28.0630   13.3507   27.2119 H   0  0  0  0  0  0  0  0  0  0  0  0
   28.9116   13.6151   25.7000 H   0  0  0  0  0  0  0  0  0  0  0  0
   26.2925   13.9258   25.8728 H   0  0  0  0  0  0  0  0  0  0  0  0
   26.2128   12.2023   25.5925 H   0  0  0  0  0  0  0  0  0  0  0  0
   25.9496   13.4168   23.5584 H   0  0  0  0  0  0  0  0  0  0  0  0
   27.4253   14.3314   23.7864 H   0  0  0  0  0  0  0  0  0  0  0  0
   27.2508   11.3184   23.2869 H   0  0  0  0  0  0  0  0  0  0  0  0
   28.7450   12.1889   23.5609 H   0  0  0  0  0  0  0  0  0  0  0  0
   25.2768   10.3276   18.5822 H   0  0  0  0  0  0  0  0  0  0  0  0
   23.3668   11.8975   18.7480 H   0  0  0  0  0  0  0  0  0  0  0  0
   23.5037   13.8981   20.1995 H   0  0  0  0  0  0  0  0  0  0  0  0
   25.5343   14.3437   21.5447 H   0  0  0  0  0  0  0  0  0  0  0  0
   30.5615   11.4094   21.8587 H   0  0  0  0  0  0  0  0  0  0  0  0
   31.3180    9.4001   20.6046 H   0  0  0  0  0  0  0  0  0  0  0  0
   29.7972    8.2481   19.0271 H   0  0  0  0  0  0  0  0  0  0  0  0
   27.4947    9.0913   18.6535 H   0  0  0  0  0  0  0  0  0  0  0  0
   28.1507   13.8169   19.3327 H   0  0  0  0  0  0  0  0  0  0  0  0
   29.7454   16.0872   20.4567 H   0  0  0  0  0  0  0  0  0  0  0  0
   28.9208   16.0492   18.8947 H   0  0  0  0  0  0  0  0  0  0  0  0
   32.4376   10.5072   34.4897 H   0  0  0  0  0  0  0  0  0  0  0  0
   34.5851   11.6016   33.9471 H   0  0  0  0  0  0  0  0  0  0  0  0
   35.4313   11.6279   31.6143 H   0  0  0  0  0  0  0  0  0  0  0  0
   34.1060   10.5531   29.8049 H   0  0  0  0  0  0  0  0  0  0  0  0
   31.6989    7.3065   33.1654 H   0  0  0  0  0  0  0  0  0  0  0  0
   29.6073    6.1592   33.7712 H   0  0  0  0  0  0  0  0  0  0  0  0
   27.4132    9.8166   33.1179 H   0  0  0  0  0  0  0  0  0  0  0  0
   29.5135   10.9638   32.5209 H   0  0  0  0  0  0  0  0  0  0  0  0
  1  8  1  0
  8  9  1  0
  9 10  1  0
 10 11  1  0
 11 12  1  0
 12 13  1  0
 12 14  1  0
 14 15  2  0
 15 16  1  0
 16 17  1  0
 17 12  1  0
 16 18  2  0
 18 19  1  0
 19 20  2  0
 20 21  1  0
 21 17  2  0
 14 22  1  0
 22 23  2  0
 23 24  1  0
 24 25  2  0
 25 15  1  0
 13 26  2  0
 13 27  1  0
 27 28  1  0
  7 29  1  0
 29 30  1  0
 29 31  2  0
 30 32  1  0
 32 33  2  0
 33 34  1  0
 34 35  2  0
 35 36  1  0
 36 30  2  0
 32 37  1  0
 37 38  2  0
 38 39  1  0
 39 40  2  0
 40 41  1  0
 41 42  2  0
 42 37  1  0
 40 43  1  0
 28 44  1  0
  1  2  1  0
  2  3  1  0
 44 45  1  0
  3  4  1  0
 44 46  1  0
  4  5  1  0
 44 47  1  0
  5  6  1  0
 43 48  1  0
  6  1  1  0
 43 49  1  0
  4  7  1  0
 43 50  1  0
  2 51  1  0
  2 52  1  0
  3 53  1  0
  3 54  1  0
  4 55  1  0
  5 56  1  0
  5 57  1  0
  6 58  1  0
  6 59  1  0
  7 60  1  0
  8 61  1  0
  8 62  1  0
  9 63  1  0
  9 64  1  0
 10 65  1  0
 10 66  1  0
 11 67  1  0
 11 68  1  0
 18 69  1  0
 19 70  1  0
 20 71  1  0
 21 72  1  0
 22 73  1  0
 23 74  1  0
 24 75  1  0
 25 76  1  0
 27 77  1  0
 28 78  1  0
 28 79  1  0
 33 80  1  0
 34 81  1  0
 35 82  1  0
 36 83  1  0
 38 84  1  0
 39 85  1  0
 41 86  1  0
 42 87  1  0
M  END
> <Uni-Dock RESULT> 
ENERGY=   -4.049  LOWER_BOUND=    4.634  UPPER_BOUND=   12.785
INTER + INTRA:          -4.049
INTER:                  -4.049
INTRA:                   0.000
UNBOUND:                 0.000

$$$$

     RDKit          3D

 87 92  0  0  0  0  0  0  0  0999 V2000
   28.1401   11.3634   26.7643 N   0  0  0  0  0  0  0  0  0  0  0  0
   29.5662   11.0979   27.0224 C   0  0  0  0  0  0  0  0  0  0  0  0
   29.8308    9.6319   27.3580 C   0  0  0  0  0  0  0  0  0  0  0  0
   29.1050    9.2236   28.6473 C   0  0  0  0  0  0  0  0  0  0  0  0
   27.8499   10.0680   28.8899 C   0  0  0  0  0  0  0  0  0  0  0  0
   27.2349   10.5291   27.5738 C   0  0  0  0  0  0  0  0  0  0  0  0
   29.9838    9.3116   29.8062 N   0  0  0  0  0  0  0  0  0  0  0  0
   27.8466   12.8020   26.8817 C   0  0  0  0  0  0  0  0  0  0  0  0
   26.5629   13.2138   26.1447 C   0  0  0  0  0  0  0  0  0  0  0  0
   26.7571   13.6442   24.6840 C   0  0  0  0  0  0  0  0  0  0  0  0
   27.3791   12.5878   23.7606 C   0  0  0  0  0  0  0  0  0  0  0  0
   27.5972   13.0360   22.2849 C   0  0  0  0  0  0  0  0  0  0  0  0
   28.6190   14.1999   22.1695 C   0  0  0  0  0  0  0  0  0  0  0  0
   28.1291   11.8237   21.4900 C   0  0  0  0  0  0  0  0  0  0  0  0
   27.1988   11.4320   20.5064 C   0  0  0  0  0  0  0  0  0  0  0  0
   26.0637   12.3258   20.5429 C   0  0  0  0  0  0  0  0  0  0  0  0
   26.2714   13.3037   21.5409 C   0  0  0  0  0  0  0  0  0  0  0  0
   24.9232   12.3508   19.7550 C   0  0  0  0  0  0  0  0  0  0  0  0
   23.9931   13.3742   19.9542 C   0  0  0  0  0  0  0  0  0  0  0  0
   24.2187   14.3697   20.9156 C   0  0  0  0  0  0  0  0  0  0  0  0
   25.3654   14.3446   21.7116 C   0  0  0  0  0  0  0  0  0  0  0  0
   29.3395   11.1578   21.6439 C   0  0  0  0  0  0  0  0  0  0  0  0
   29.6073   10.0798   20.7998 C   0  0  0  0  0  0  0  0  0  0  0  0
   28.6783    9.6801   19.8249 C   0  0  0  0  0  0  0  0  0  0  0  0
   27.4674   10.3589   19.6735 C   0  0  0  0  0  0  0  0  0  0  0  0
   29.3968   14.4992   23.0756 O   0  0  0  0  0  0  0  0  0  0  0  0
   28.6507   14.8638   20.9542 N   0  0  0  0  0  0  0  0  0  0  0  0
   29.6711   15.8690   20.6609 C   0  0  0  0  0  0  0  0  0  0  0  0
   30.7484    8.2518   30.2376 C   0  0  0  0  0  0  0  0  0  0  0  0
   31.5790    8.5714   31.4153 C   0  0  0  0  0  0  0  0  0  0  0  0
   30.7782    7.1361   29.7373 O   0  0  0  0  0  0  0  0  0  0  0  0
   31.0537    8.4441   32.7153 C   0  0  0  0  0  0  0  0  0  0  0  0
   31.8819    8.8066   33.7907 C   0  0  0  0  0  0  0  0  0  0  0  0
   33.1859    9.2695   33.5720 C   0  0  0  0  0  0  0  0  0  0  0  0
   33.6859    9.3798   32.2759 C   0  0  0  0  0  0  0  0  0  0  0  0
   32.8850    9.0297   31.1915 C   0  0  0  0  0  0  0  0  0  0  0  0
   29.7032    7.9263   32.9750 C   0  0  0  0  0  0  0  0  0  0  0  0
   29.4990    6.5509   33.1609 C   0  0  0  0  0  0  0  0  0  0  0  0
   28.2220    6.0446   33.4178 C   0  0  0  0  0  0  0  0  0  0  0  0
   27.1164    6.9042   33.5018 C   0  0  0  0  0  0  0  0  0  0  0  0
   27.3153    8.2788   33.3030 C   0  0  0  0  0  0  0  0  0  0  0  0
   28.5947    8.7837   33.0478 C   0  0  0  0  0  0  0  0  0  0  0  0
   25.7400    6.3443   33.7752 C   0  0  0  0  0  0  0  0  0  0  0  0
   30.9118   15.3264   19.9425 C   0  0  0  0  0  0  0  0  0  0  0  0
   30.5820   14.8442   18.7147 F   0  0  0  0  0  0  0  0  0  0  0  0
   31.8144   16.3174   19.7503 F   0  0  0  0  0  0  0  0  0  0  0  0
   31.5230   14.3332   20.6269 F   0  0  0  0  0  0  0  0  0  0  0  0
   25.2082    5.7011   32.6997 F   0  0  0  0  0  0  0  0  0  0  0  0
   24.8314    7.2986   34.1309 F   0  0  0  0  0  0  0  0  0  0  0  0
   25.7389    5.4358   34.7931 F   0  0  0  0  0  0  0  0  0  0  0  0
   30.1389   11.3693   26.1273 H   0  0  0  0  0  0  0  0  0  0  0  0
   29.9396   11.7187   27.8506 H   0  0  0  0  0  0  0  0  0  0  0  0
   30.9084    9.4478   27.4312 H   0  0  0  0  0  0  0  0  0  0  0  0
   29.4658    9.0126   26.5281 H   0  0  0  0  0  0  0  0  0  0  0  0
   28.8094    8.1723   28.5437 H   0  0  0  0  0  0  0  0  0  0  0  0
   28.0830   10.9462   29.5068 H   0  0  0  0  0  0  0  0  0  0  0  0
   27.1207    9.4827   29.4633 H   0  0  0  0  0  0  0  0  0  0  0  0
   26.9711    9.6474   26.9768 H   0  0  0  0  0  0  0  0  0  0  0  0
   26.2853   11.0337   27.7873 H   0  0  0  0  0  0  0  0  0  0  0  0
   30.1523   10.2188   30.2205 H   0  0  0  0  0  0  0  0  0  0  0  0
   27.7644   13.0743   27.9418 H   0  0  0  0  0  0  0  0  0  0  0  0
   28.6754   13.3959   26.4781 H   0  0  0  0  0  0  0  0  0  0  0  0
   26.1276   14.0695   26.6811 H   0  0  0  0  0  0  0  0  0  0  0  0
   25.8008   12.4258   26.1845 H   0  0  0  0  0  0  0  0  0  0  0  0
   25.7639   13.9103   24.3198 H   0  0  0  0  0  0  0  0  0  0  0  0
   27.3531   14.5590   24.6663 H   0  0  0  0  0  0  0  0  0  0  0  0
   26.7470   11.6919   23.7885 H   0  0  0  0  0  0  0  0  0  0  0  0
   28.3470   12.2888   24.1751 H   0  0  0  0  0  0  0  0  0  0  0  0
   24.7515   11.6016   18.9904 H   0  0  0  0  0  0  0  0  0  0  0  0
   23.0908   13.4055   19.3480 H   0  0  0  0  0  0  0  0  0  0  0  0
   23.4896   15.1663   21.0417 H   0  0  0  0  0  0  0  0  0  0  0  0
   25.5339   15.1328   22.4386 H   0  0  0  0  0  0  0  0  0  0  0  0
   30.0653   11.4659   22.3932 H   0  0  0  0  0  0  0  0  0  0  0  0
   30.5443    9.5388   20.8969 H   0  0  0  0  0  0  0  0  0  0  0  0
   28.9051    8.8324   19.1817 H   0  0  0  0  0  0  0  0  0  0  0  0
   26.7607   10.0494   18.9111 H   0  0  0  0  0  0  0  0  0  0  0  0
   28.0916   14.5022   20.1855 H   0  0  0  0  0  0  0  0  0  0  0  0
   29.9788   16.3511   21.5927 H   0  0  0  0  0  0  0  0  0  0  0  0
   29.1918   16.6318   20.0361 H   0  0  0  0  0  0  0  0  0  0  0  0
   31.5120    8.7244   34.8136 H   0  0  0  0  0  0  0  0  0  0  0  0
   33.8088    9.5455   34.4205 H   0  0  0  0  0  0  0  0  0  0  0  0
   34.7002    9.7364   32.1124 H   0  0  0  0  0  0  0  0  0  0  0  0
   33.2707    9.1056   30.1774 H   0  0  0  0  0  0  0  0  0  0  0  0
   30.3384    5.8602   33.0923 H   0  0  0  0  0  0  0  0  0  0  0  0
   28.0877    4.9709   33.5416 H   0  0  0  0  0  0  0  0  0  0  0  0
   26.4718    8.9672   33.3505 H   0  0  0  0  0  0  0  0  0  0  0  0
   28.7309    9.8539   32.9099 H   0  0  0  0  0  0  0  0  0  0  0  0
  1  8  1  0
  8  9  1  0
  9 10  1  0
 10 11  1  0
 11 12  1  0
 12 13  1  0
 12 14  1  0
 14 15  2  0
 15 16  1  0
 16 17  1  0
 17 12  1  0
 16 18  2  0
 18 19  1  0
 19 20  2  0
 20 21  1  0
 21 17  2  0
 14 22  1  0
 22 23  2  0
 23 24  1  0
 24 25  2  0
 25 15  1  0
 13 26  2  0
 13 27  1  0
 27 28  1  0
  7 29  1  0
 29 30  1  0
 29 31  2  0
 30 32  1  0
 32 33  2  0
 33 34  1  0
 34 35  2  0
 35 36  1  0
 36 30  2  0
 32 37  1  0
 37 38  2  0
 38 39  1  0
 39 40  2  0
 40 41  1  0
 41 42  2  0
 42 37  1  0
 40 43  1  0
 28 44  1  0
  1  2  1  0
  2  3  1  0
 44 45  1  0
  3  4  1  0
 44 46  1  0
  4  5  1  0
 44 47  1  0
  5  6  1  0
 43 48  1  0
  6  1  1  0
 43 49  1  0
  4  7  1  0
 43 50  1  0
  2 51  1  0
  2 52  1  0
  3 53  1  0
  3 54  1  0
  4 55  1  0
  5 56  1  0
  5 57  1  0
  6 58  1  0
  6 59  1  0
  7 60  1  0
  8 61  1  0
  8 62  1  0
  9 63  1  0
  9 64  1  0
 10 65  1  0
 10 66  1  0
 11 67  1  0
 11 68  1  0
 18 69  1  0
 19 70  1  0
 20 71  1  0
 21 72  1  0
 22 73  1  0
 23 74  1  0
 24 75  1  0
 25 76  1  0
 27 77  1  0
 28 78  1  0
 28 79  1  0
 33 80  1  0
 34 81  1  0
 35 82  1  0
 36 83  1  0
 38 84  1  0
 39 85  1  0
 41 86  1  0
 42 87  1  0
M  END
> <Uni-Dock RESULT> 
ENERGY=   -4.024  LOWER_BOUND=    5.526  UPPER_BOUND=   12.695
INTER + INTRA:          -4.024
INTER:                  -4.024
INTRA:                   0.000
UNBOUND:                 0.000

$$$$

     RDKit          3D

 87 92  0  0  0  0  0  0  0  0999 V2000
   32.7572   11.9620   27.2381 N   0  0  0  0  0  0  0  0  0  0  0  0
   31.4237   12.1885   27.8223 C   0  0  0  0  0  0  0  0  0  0  0  0
   30.3504   11.3202   27.1696 C   0  0  0  0  0  0  0  0  0  0  0  0
   30.2008   11.6585   25.6800 C   0  0  0  0  0  0  0  0  0  0  0  0
   31.4986   12.2153   25.0860 C   0  0  0  0  0  0  0  0  0  0  0  0
   32.7186   11.6454   25.7998 C   0  0  0  0  0  0  0  0  0  0  0  0
   29.1153   12.6037   25.4530 N   0  0  0  0  0  0  0  0  0  0  0  0
   33.6621   13.0812   27.5511 C   0  0  0  0  0  0  0  0  0  0  0  0
   35.1465   12.7007   27.4408 C   0  0  0  0  0  0  0  0  0  0  0  0
   35.7840   12.1729   28.7337 C   0  0  0  0  0  0  0  0  0  0  0  0
   35.1332   10.9156   29.3263 C   0  0  0  0  0  0  0  0  0  0  0  0
   35.7671   10.3969   30.6512 C   0  0  0  0  0  0  0  0  0  0  0  0
   35.6108   11.4137   31.8146 C   0  0  0  0  0  0  0  0  0  0  0  0
   35.0570    9.0815   31.0387 C   0  0  0  0  0  0  0  0  0  0  0  0
   35.9608    8.0009   30.9931 C   0  0  0  0  0  0  0  0  0  0  0  0
   37.2715    8.4924   30.6333 C   0  0  0  0  0  0  0  0  0  0  0  0
   37.2141    9.8934   30.4627 C   0  0  0  0  0  0  0  0  0  0  0  0
   38.4706    7.8113   30.4912 C   0  0  0  0  0  0  0  0  0  0  0  0
   39.6250    8.5408   30.1958 C   0  0  0  0  0  0  0  0  0  0  0  0
   39.5771    9.9364   30.0682 C   0  0  0  0  0  0  0  0  0  0  0  0
   38.3699   10.6236   30.2085 C   0  0  0  0  0  0  0  0  0  0  0  0
   33.7288    8.8959   31.4040 C   0  0  0  0  0  0  0  0  0  0  0  0
   33.3092    7.6031   31.7182 C   0  0  0  0  0  0  0  0  0  0  0  0
   34.2045    6.5220   31.6643 C   0  0  0  0  0  0  0  0  0  0  0  0
   35.5386    6.7189   31.3020 C   0  0  0  0  0  0  0  0  0  0  0  0
   34.8083   12.3468   31.7840 O   0  0  0  0  0  0  0  0  0  0  0  0
   36.3952   11.1844   32.9330 N   0  0  0  0  0  0  0  0  0  0  0  0
   36.2296   11.9702   34.1547 C   0  0  0  0  0  0  0  0  0  0  0  0
   27.8239   12.2010   25.2000 C   0  0  0  0  0  0  0  0  0  0  0  0
   26.8848   13.3261   25.0229 C   0  0  0  0  0  0  0  0  0  0  0  0
   27.4344   11.0445   25.1182 O   0  0  0  0  0  0  0  0  0  0  0  0
   26.7180   13.9247   23.7596 C   0  0  0  0  0  0  0  0  0  0  0  0
   25.8423   15.0196   23.6684 C   0  0  0  0  0  0  0  0  0  0  0  0
   25.1559   15.4894   24.7956 C   0  0  0  0  0  0  0  0  0  0  0  0
   25.3322   14.8753   26.0341 C   0  0  0  0  0  0  0  0  0  0  0  0
   26.1966   13.7896   26.1531 C   0  0  0  0  0  0  0  0  0  0  0  0
   27.3966   13.4291   22.5541 C   0  0  0  0  0  0  0  0  0  0  0  0
   26.7887   12.4492   21.7553 C   0  0  0  0  0  0  0  0  0  0  0  0
   27.4175   11.9747   20.6009 C   0  0  0  0  0  0  0  0  0  0  0  0
   28.6697   12.4746   20.2128 C   0  0  0  0  0  0  0  0  0  0  0  0
   29.2863   13.4450   21.0170 C   0  0  0  0  0  0  0  0  0  0  0  0
   28.6542   13.9198   22.1711 C   0  0  0  0  0  0  0  0  0  0  0  0
   29.3418   11.9501   18.9654 C   0  0  0  0  0  0  0  0  0  0  0  0
   35.2807   11.3506   35.1869 C   0  0  0  0  0  0  0  0  0  0  0  0
   35.7715   10.1656   35.6383 F   0  0  0  0  0  0  0  0  0  0  0  0
   35.1591   12.1651   36.2619 F   0  0  0  0  0  0  0  0  0  0  0  0
   34.0422   11.1248   34.6933 F   0  0  0  0  0  0  0  0  0  0  0  0
   29.8476   10.6964   19.1253 F   0  0  0  0  0  0  0  0  0  0  0  0
   30.3836   12.7266   18.5480 F   0  0  0  0  0  0  0  0  0  0  0  0
   28.4876   11.8767   17.9041 F   0  0  0  0  0  0  0  0  0  0  0  0
   31.4685   11.9575   28.8935 H   0  0  0  0  0  0  0  0  0  0  0  0
   31.1252   13.2432   27.7272 H   0  0  0  0  0  0  0  0  0  0  0  0
   29.3987   11.4294   27.7014 H   0  0  0  0  0  0  0  0  0  0  0  0
   30.6440   10.2672   27.2716 H   0  0  0  0  0  0  0  0  0  0  0  0
   29.9396   10.7324   25.1534 H   0  0  0  0  0  0  0  0  0  0  0  0
   31.5203   13.3114   25.1531 H   0  0  0  0  0  0  0  0  0  0  0  0
   31.5418   11.9787   24.0159 H   0  0  0  0  0  0  0  0  0  0  0  0
   32.7110   10.5531   25.6989 H   0  0  0  0  0  0  0  0  0  0  0  0
   33.6211   11.9821   25.2763 H   0  0  0  0  0  0  0  0  0  0  0  0
   29.2805   13.5855   25.6316 H   0  0  0  0  0  0  0  0  0  0  0  0
   33.4486   13.9240   26.8810 H   0  0  0  0  0  0  0  0  0  0  0  0
   33.4800   13.4476   28.5686 H   0  0  0  0  0  0  0  0  0  0  0  0
   35.7034   13.6026   27.1478 H   0  0  0  0  0  0  0  0  0  0  0  0
   35.3215   11.9754   26.6367 H   0  0  0  0  0  0  0  0  0  0  0  0
   36.8256   11.9645   28.4859 H   0  0  0  0  0  0  0  0  0  0  0  0
   35.7923   12.9774   29.4721 H   0  0  0  0  0  0  0  0  0  0  0  0
   35.1582   10.1250   28.5665 H   0  0  0  0  0  0  0  0  0  0  0  0
   34.0749   11.1248   29.5111 H   0  0  0  0  0  0  0  0  0  0  0  0
   38.5242    6.7355   30.6142 H   0  0  0  0  0  0  0  0  0  0  0  0
   40.5729    8.0213   30.0761 H   0  0  0  0  0  0  0  0  0  0  0  0
   40.4909   10.4856   29.8551 H   0  0  0  0  0  0  0  0  0  0  0  0
   38.3531   11.7056   30.1249 H   0  0  0  0  0  0  0  0  0  0  0  0
   33.0320    9.7298   31.4530 H   0  0  0  0  0  0  0  0  0  0  0  0
   32.2766    7.4263   32.0061 H   0  0  0  0  0  0  0  0  0  0  0  0
   33.8540    5.5210   31.9070 H   0  0  0  0  0  0  0  0  0  0  0  0
   36.2251    5.8796   31.2731 H   0  0  0  0  0  0  0  0  0  0  0  0
   36.9442   10.3295   32.9775 H   0  0  0  0  0  0  0  0  0  0  0  0
   35.8713   12.9697   33.8932 H   0  0  0  0  0  0  0  0  0  0  0  0
   37.2270   12.0811   34.5959 H   0  0  0  0  0  0  0  0  0  0  0  0
   25.6865   15.5127   22.7079 H   0  0  0  0  0  0  0  0  0  0  0  0
   24.4835   16.3397   24.7011 H   0  0  0  0  0  0  0  0  0  0  0  0
   24.7940   15.2421   26.9050 H   0  0  0  0  0  0  0  0  0  0  0  0
   26.3335   13.3001   27.1145 H   0  0  0  0  0  0  0  0  0  0  0  0
   25.8208   12.0375   22.0380 H   0  0  0  0  0  0  0  0  0  0  0  0
   26.9320   11.2015   20.0072 H   0  0  0  0  0  0  0  0  0  0  0  0
   30.2644   13.8411   20.7453 H   0  0  0  0  0  0  0  0  0  0  0  0
   29.1420   14.6822   22.7742 H   0  0  0  0  0  0  0  0  0  0  0  0
  1  8  1  0
  8  9  1  0
  9 10  1  0
 10 11  1  0
 11 12  1  0
 12 13  1  0
 12 14  1  0
 14 15  2  0
 15 16  1  0
 16 17  1  0
 17 12  1  0
 16 18  2  0
 18 19  1  0
 19 20  2  0
 20 21  1  0
 21 17  2  0
 14 22  1  0
 22 23  2  0
 23 24  1  0
 24 25  2  0
 25 15  1  0
 13 26  2  0
 13 27  1  0
 27 28  1  0
  7 29  1  0
 29 30  1  0
 29 31  2  0
 30 32  1  0
 32 33  2  0
 33 34  1  0
 34 35  2  0
 35 36  1  0
 36 30  2  0
 32 37  1  0
 37 38  2  0
 38 39  1  0
 39 40  2  0
 40 41  1  0
 41 42  2  0
 42 37  1  0
 40 43  1  0
 28 44  1  0
  1  2  1  0
  2  3  1  0
 44 45  1  0
  3  4  1  0
 44 46  1  0
  4  5  1  0
 44 47  1  0
  5  6  1  0
 43 48  1  0
  6  1  1  0
 43 49  1  0
  4  7  1  0
 43 50  1  0
  2 51  1  0
  2 52  1  0
  3 53  1  0
  3 54  1  0
  4 55  1  0
  5 56  1  0
  5 57  1  0
  6 58  1  0
  6 59  1  0
  7 60  1  0
  8 61  1  0
  8 62  1  0
  9 63  1  0
  9 64  1  0
 10 65  1  0
 10 66  1  0
 11 67  1  0
 11 68  1  0
 18 69  1  0
 19 70  1  0
 20 71  1  0
 21 72  1  0
 22 73  1  0
 23 74  1  0
 24 75  1  0
 25 76  1  0
 27 77  1  0
 28 78  1  0
 28 79  1  0
 33 80  1  0
 34 81  1  0
 35 82  1  0
 36 83  1  0
 38 84  1  0
 39 85  1  0
 41 86  1  0
 42 87  1  0
M  END
> <Uni-Dock RESULT> 
ENERGY=   -4.019  LOWER_BOUND=    3.268  UPPER_BOUND=    3.969
INTER + INTRA:          -4.019
INTER:                  -4.019
INTRA:                   0.000
UNBOUND:                 0.000

$$$$

     RDKit          3D

 87 92  0  0  0  0  0  0  0  0999 V2000
   31.9162    8.7864   30.5354 N   0  0  0  0  0  0  0  0  0  0  0  0
   30.6212    9.3968   30.8835 C   0  0  0  0  0  0  0  0  0  0  0  0
   30.0126    8.7850   32.1433 C   0  0  0  0  0  0  0  0  0  0  0  0
   29.7135    7.2933   31.9405 C   0  0  0  0  0  0  0  0  0  0  0  0
   30.6419    6.6595   30.8995 C   0  0  0  0  0  0  0  0  0  0  0  0
   31.9976    7.3554   30.8760 C   0  0  0  0  0  0  0  0  0  0  0  0
   28.3257    7.0741   31.5544 N   0  0  0  0  0  0  0  0  0  0  0  0
   32.2611    9.0580   29.1294 C   0  0  0  0  0  0  0  0  0  0  0  0
   33.7644    8.9205   28.8437 C   0  0  0  0  0  0  0  0  0  0  0  0
   34.5829   10.2079   29.0152 C   0  0  0  0  0  0  0  0  0  0  0  0
   34.5384   10.8381   30.4138 C   0  0  0  0  0  0  0  0  0  0  0  0
   35.3503   12.1574   30.5778 C   0  0  0  0  0  0  0  0  0  0  0  0
   34.7901   13.3053   29.6943 C   0  0  0  0  0  0  0  0  0  0  0  0
   35.2743   12.5852   32.0596 C   0  0  0  0  0  0  0  0  0  0  0  0
   36.5520   12.5386   32.6527 C   0  0  0  0  0  0  0  0  0  0  0  0
   37.5230   12.1398   31.6592 C   0  0  0  0  0  0  0  0  0  0  0  0
   36.8711   11.9449   30.4213 C   0  0  0  0  0  0  0  0  0  0  0  0
   38.8961   11.9826   31.7678 C   0  0  0  0  0  0  0  0  0  0  0  0
   39.6250   11.6474   30.6239 C   0  0  0  0  0  0  0  0  0  0  0  0
   38.9846   11.4955   29.3857 C   0  0  0  0  0  0  0  0  0  0  0  0
   37.6015   11.6509   29.2752 C   0  0  0  0  0  0  0  0  0  0  0  0
   34.1571   12.9843   32.7839 C   0  0  0  0  0  0  0  0  0  0  0  0
   34.3332   13.3317   34.1235 C   0  0  0  0  0  0  0  0  0  0  0  0
   35.6034   13.2769   34.7209 C   0  0  0  0  0  0  0  0  0  0  0  0
   36.7211   12.8805   33.9838 C   0  0  0  0  0  0  0  0  0  0  0  0
   33.6660   13.2761   29.1934 O   0  0  0  0  0  0  0  0  0  0  0  0
   35.6119   14.4093   29.5378 N   0  0  0  0  0  0  0  0  0  0  0  0
   35.1428   15.6199   28.8656 C   0  0  0  0  0  0  0  0  0  0  0  0
   27.3264    6.8583   32.4756 C   0  0  0  0  0  0  0  0  0  0  0  0
   25.9948    6.6822   31.8631 C   0  0  0  0  0  0  0  0  0  0  0  0
   27.4664    6.8066   33.6895 O   0  0  0  0  0  0  0  0  0  0  0  0
   25.5721    5.4124   31.4262 C   0  0  0  0  0  0  0  0  0  0  0  0
   24.3120    5.3212   30.8118 C   0  0  0  0  0  0  0  0  0  0  0  0
   23.5054    6.4552   30.6498 C   0  0  0  0  0  0  0  0  0  0  0  0
   23.9430    7.7004   31.0973 C   0  0  0  0  0  0  0  0  0  0  0  0
   25.1893    7.8192   31.7075 C   0  0  0  0  0  0  0  0  0  0  0  0
   26.3816    4.2008   31.6169 C   0  0  0  0  0  0  0  0  0  0  0  0
   26.2395    3.4343   32.7832 C   0  0  0  0  0  0  0  0  0  0  0  0
   26.9956    2.2746   32.9747 C   0  0  0  0  0  0  0  0  0  0  0  0
   27.9097    1.8487   31.9992 C   0  0  0  0  0  0  0  0  0  0  0  0
   28.0637    2.6206   30.8378 C   0  0  0  0  0  0  0  0  0  0  0  0
   27.3046    3.7800   30.6473 C   0  0  0  0  0  0  0  0  0  0  0  0
   28.7250    0.5960   32.2199 C   0  0  0  0  0  0  0  0  0  0  0  0
   34.5624   16.6849   29.8031 C   0  0  0  0  0  0  0  0  0  0  0  0
   35.5177   17.1464   30.6535 F   0  0  0  0  0  0  0  0  0  0  0  0
   34.1190   17.7473   29.0901 F   0  0  0  0  0  0  0  0  0  0  0  0
   33.5323   16.2241   30.5482 F   0  0  0  0  0  0  0  0  0  0  0  0
   29.7194    0.7672   33.1337 F   0  0  0  0  0  0  0  0  0  0  0  0
   29.3305    0.1406   31.0847 F   0  0  0  0  0  0  0  0  0  0  0  0
   27.9701   -0.4439   32.6783 F   0  0  0  0  0  0  0  0  0  0  0  0
   30.7742   10.4708   31.0450 H   0  0  0  0  0  0  0  0  0  0  0  0
   29.9000    9.2893   30.0595 H   0  0  0  0  0  0  0  0  0  0  0  0
   29.1122    9.3364   32.4361 H   0  0  0  0  0  0  0  0  0  0  0  0
   30.7286    8.8995   32.9677 H   0  0  0  0  0  0  0  0  0  0  0  0
   29.8656    6.7899   32.9031 H   0  0  0  0  0  0  0  0  0  0  0  0
   30.1948    6.7060   29.8973 H   0  0  0  0  0  0  0  0  0  0  0  0
   30.7681    5.5932   31.1232 H   0  0  0  0  0  0  0  0  0  0  0  0
   32.4555    7.2747   31.8697 H   0  0  0  0  0  0  0  0  0  0  0  0
   32.6634    6.8052   30.2007 H   0  0  0  0  0  0  0  0  0  0  0  0
   28.0586    7.2308   30.5915 H   0  0  0  0  0  0  0  0  0  0  0  0
   31.6997    8.3776   28.4760 H   0  0  0  0  0  0  0  0  0  0  0  0
   31.9533   10.0724   28.8489 H   0  0  0  0  0  0  0  0  0  0  0  0
   33.8794    8.5983   27.7985 H   0  0  0  0  0  0  0  0  0  0  0  0
   34.2216    8.1260   29.4462 H   0  0  0  0  0  0  0  0  0  0  0  0
   35.6105    9.9400   28.7663 H   0  0  0  0  0  0  0  0  0  0  0  0
   34.2567   10.9309   28.2647 H   0  0  0  0  0  0  0  0  0  0  0  0
   34.8885   10.0926   31.1381 H   0  0  0  0  0  0  0  0  0  0  0  0
   33.4945   11.0434   30.6709 H   0  0  0  0  0  0  0  0  0  0  0  0
   39.4052   12.1240   32.7145 H   0  0  0  0  0  0  0  0  0  0  0  0
   40.7022   11.5155   30.6928 H   0  0  0  0  0  0  0  0  0  0  0  0
   39.5739   11.2514   28.5053 H   0  0  0  0  0  0  0  0  0  0  0  0
   37.1236   11.5479   28.3061 H   0  0  0  0  0  0  0  0  0  0  0  0
   33.1718   13.0340   32.3256 H   0  0  0  0  0  0  0  0  0  0  0  0
   33.4786   13.6464   34.7159 H   0  0  0  0  0  0  0  0  0  0  0  0
   35.7166   13.5459   35.7690 H   0  0  0  0  0  0  0  0  0  0  0  0
   37.6997   12.8512   34.4509 H   0  0  0  0  0  0  0  0  0  0  0  0
   36.4737   14.4568   30.0757 H   0  0  0  0  0  0  0  0  0  0  0  0
   34.3890   15.3485   28.1215 H   0  0  0  0  0  0  0  0  0  0  0  0
   36.0032   16.0360   28.3286 H   0  0  0  0  0  0  0  0  0  0  0  0
   23.9482    4.3558   30.4576 H   0  0  0  0  0  0  0  0  0  0  0  0
   22.5334    6.3606   30.1700 H   0  0  0  0  0  0  0  0  0  0  0  0
   23.3111    8.5765   30.9721 H   0  0  0  0  0  0  0  0  0  0  0  0
   25.5345    8.7861   32.0665 H   0  0  0  0  0  0  0  0  0  0  0  0
   25.5435    3.7467   33.5605 H   0  0  0  0  0  0  0  0  0  0  0  0
   26.8787    1.7065   33.8965 H   0  0  0  0  0  0  0  0  0  0  0  0
   28.7758    2.3193   30.0698 H   0  0  0  0  0  0  0  0  0  0  0  0
   27.4283    4.3578   29.7342 H   0  0  0  0  0  0  0  0  0  0  0  0
  1  8  1  0
  8  9  1  0
  9 10  1  0
 10 11  1  0
 11 12  1  0
 12 13  1  0
 12 14  1  0
 14 15  2  0
 15 16  1  0
 16 17  1  0
 17 12  1  0
 16 18  2  0
 18 19  1  0
 19 20  2  0
 20 21  1  0
 21 17  2  0
 14 22  1  0
 22 23  2  0
 23 24  1  0
 24 25  2  0
 25 15  1  0
 13 26  2  0
 13 27  1  0
 27 28  1  0
  7 29  1  0
 29 30  1  0
 29 31  2  0
 30 32  1  0
 32 33  2  0
 33 34  1  0
 34 35  2  0
 35 36  1  0
 36 30  2  0
 32 37  1  0
 37 38  2  0
 38 39  1  0
 39 40  2  0
 40 41  1  0
 41 42  2  0
 42 37  1  0
 40 43  1  0
 28 44  1  0
  1  2  1  0
  2  3  1  0
 44 45  1  0
  3  4  1  0
 44 46  1  0
  4  5  1  0
 44 47  1  0
  5  6  1  0
 43 48  1  0
  6  1  1  0
 43 49  1  0
  4  7  1  0
 43 50  1  0
  2 51  1  0
  2 52  1  0
  3 53  1  0
  3 54  1  0
  4 55  1  0
  5 56  1  0
  5 57  1  0
  6 58  1  0
  6 59  1  0
  7 60  1  0
  8 61  1  0
  8 62  1  0
  9 63  1  0
  9 64  1  0
 10 65  1  0
 10 66  1  0
 11 67  1  0
 11 68  1  0
 18 69  1  0
 19 70  1  0
 20 71  1  0
 21 72  1  0
 22 73  1  0
 23 74  1  0
 24 75  1  0
 25 76  1  0
 27 77  1  0
 28 78  1  0
 28 79  1  0
 33 80  1  0
 34 81  1  0
 35 82  1  0
 36 83  1  0
 38 84  1  0
 39 85  1  0
 41 86  1  0
 42 87  1  0
M  END
> <Uni-Dock RESULT> 
ENERGY=   -3.970  LOWER_BOUND=    7.278  UPPER_BOUND=    8.955
INTER + INTRA:          -3.970
INTER:                  -3.970
INTRA:                   0.000
UNBOUND:                 0.000

$$$$

     RDKit          3D

 87 92  0  0  0  0  0  0  0  0999 V2000
   32.1525    9.0361   30.8051 N   0  0  0  0  0  0  0  0  0  0  0  0
   30.8438    9.4753   31.3199 C   0  0  0  0  0  0  0  0  0  0  0  0
   30.3686    8.6243   32.4954 C   0  0  0  0  0  0  0  0  0  0  0  0
   30.1648    7.1638   32.0696 C   0  0  0  0  0  0  0  0  0  0  0  0
   31.0629    6.7809   30.8889 C   0  0  0  0  0  0  0  0  0  0  0  0
   32.3601    7.5808   30.9031 C   0  0  0  0  0  0  0  0  0  0  0  0
   28.7732    6.8950   31.7313 N   0  0  0  0  0  0  0  0  0  0  0  0
   32.3797    9.5537   29.4449 C   0  0  0  0  0  0  0  0  0  0  0  0
   33.8660    9.5871   29.0568 C   0  0  0  0  0  0  0  0  0  0  0  0
   34.5992   10.8941   29.3895 C   0  0  0  0  0  0  0  0  0  0  0  0
   34.6054   11.2898   30.8723 C   0  0  0  0  0  0  0  0  0  0  0  0
   35.3293   12.6288   31.2031 C   0  0  0  0  0  0  0  0  0  0  0  0
   34.6286   13.8519   30.5510 C   0  0  0  0  0  0  0  0  0  0  0  0
   35.3244   12.8095   32.7367 C   0  0  0  0  0  0  0  0  0  0  0  0
   36.6398   12.7750   33.2417 C   0  0  0  0  0  0  0  0  0  0  0  0
   37.5666   12.6194   32.1437 C   0  0  0  0  0  0  0  0  0  0  0  0
   36.8472   12.5695   30.9291 C   0  0  0  0  0  0  0  0  0  0  0  0
   38.9517   12.5604   32.1481 C   0  0  0  0  0  0  0  0  0  0  0  0
   39.6227   12.4712   30.9259 C   0  0  0  0  0  0  0  0  0  0  0  0
   38.9116   12.4645   29.7173 C   0  0  0  0  0  0  0  0  0  0  0  0
   37.5166   12.5212   29.7113 C   0  0  0  0  0  0  0  0  0  0  0  0
   34.2336   12.9960   33.5777 C   0  0  0  0  0  0  0  0  0  0  0  0
   34.4755   13.1408   34.9440 C   0  0  0  0  0  0  0  0  0  0  0  0
   35.7843   13.0970   35.4523 C   0  0  0  0  0  0  0  0  0  0  0  0
   36.8746   12.9152   34.5991 C   0  0  0  0  0  0  0  0  0  0  0  0
   33.4778   13.8098   30.1158 O   0  0  0  0  0  0  0  0  0  0  0  0
   35.3559   15.0305   30.5305 N   0  0  0  0  0  0  0  0  0  0  0  0
   34.7557   16.2894   30.0917 C   0  0  0  0  0  0  0  0  0  0  0  0
   27.8575    6.4550   32.6597 C   0  0  0  0  0  0  0  0  0  0  0  0
   26.5033    6.2690   32.1023 C   0  0  0  0  0  0  0  0  0  0  0  0
   28.0838    6.2240   33.8392 O   0  0  0  0  0  0  0  0  0  0  0  0
   26.1443    5.0537   31.4889 C   0  0  0  0  0  0  0  0  0  0  0  0
   24.8549    4.9575   30.9395 C   0  0  0  0  0  0  0  0  0  0  0  0
   23.9595    6.0326   31.0097 C   0  0  0  0  0  0  0  0  0  0  0  0
   24.3357    7.2231   31.6287 C   0  0  0  0  0  0  0  0  0  0  0  0
   25.6091    7.3462   32.1793 C   0  0  0  0  0  0  0  0  0  0  0  0
   27.0503    3.8980   31.4342 C   0  0  0  0  0  0  0  0  0  0  0  0
   27.0441    2.9478   32.4663 C   0  0  0  0  0  0  0  0  0  0  0  0
   27.8932    1.8386   32.4238 C   0  0  0  0  0  0  0  0  0  0  0  0
   28.7667    1.6487   31.3423 C   0  0  0  0  0  0  0  0  0  0  0  0
   28.7847    2.6043   30.3152 C   0  0  0  0  0  0  0  0  0  0  0  0
   27.9325    3.7129   30.3589 C   0  0  0  0  0  0  0  0  0  0  0  0
   29.6834    0.4482   31.3101 C   0  0  0  0  0  0  0  0  0  0  0  0
   34.1657   17.1416   31.2210 C   0  0  0  0  0  0  0  0  0  0  0  0
   35.1411   17.5400   32.0804 F   0  0  0  0  0  0  0  0  0  0  0  0
   33.5989   18.2631   30.7164 F   0  0  0  0  0  0  0  0  0  0  0  0
   33.2250   16.4858   31.9377 F   0  0  0  0  0  0  0  0  0  0  0  0
   30.7232    0.5540   32.1824 F   0  0  0  0  0  0  0  0  0  0  0  0
   30.2409    0.2291   30.0838 F   0  0  0  0  0  0  0  0  0  0  0  0
   29.0386   -0.7096   31.6347 F   0  0  0  0  0  0  0  0  0  0  0  0
   30.9296   10.5192   31.6453 H   0  0  0  0  0  0  0  0  0  0  0  0
   30.0775    9.4403   30.5311 H   0  0  0  0  0  0  0  0  0  0  0  0
   29.4530    9.0466   32.9241 H   0  0  0  0  0  0  0  0  0  0  0  0
   31.1293    8.6656   33.2860 H   0  0  0  0  0  0  0  0  0  0  0  0
   30.4184    6.5290   32.9273 H   0  0  0  0  0  0  0  0  0  0  0  0
   30.5460    6.9481   29.9343 H   0  0  0  0  0  0  0  0  0  0  0  0
   31.2807    5.7067   30.9287 H   0  0  0  0  0  0  0  0  0  0  0  0
   32.8896    7.3821   31.8431 H   0  0  0  0  0  0  0  0  0  0  0  0
   33.0160    7.2008   30.1110 H   0  0  0  0  0  0  0  0  0  0  0  0
   28.4301    7.1793   30.8233 H   0  0  0  0  0  0  0  0  0  0  0  0
   31.8255    8.9412   28.7220 H   0  0  0  0  0  0  0  0  0  0  0  0
   31.9811   10.5710   29.3510 H   0  0  0  0  0  0  0  0  0  0  0  0
   33.9320    9.4446   27.9684 H   0  0  0  0  0  0  0  0  0  0  0  0
   34.4195    8.7477   29.4954 H   0  0  0  0  0  0  0  0  0  0  0  0
   35.6240   10.7544   29.0431 H   0  0  0  0  0  0  0  0  0  0  0  0
   34.1711   11.6974   28.7862 H   0  0  0  0  0  0  0  0  0  0  0  0
   35.0571   10.4706   31.4448 H   0  0  0  0  0  0  0  0  0  0  0  0
   33.5694   11.3654   31.2174 H   0  0  0  0  0  0  0  0  0  0  0  0
   39.5129   12.5919   33.0752 H   0  0  0  0  0  0  0  0  0  0  0  0
   40.7089   12.4190   30.9119 H   0  0  0  0  0  0  0  0  0  0  0  0
   39.4553   12.4118   28.7773 H   0  0  0  0  0  0  0  0  0  0  0  0
   36.9821   12.5336   28.7667 H   0  0  0  0  0  0  0  0  0  0  0  0
   33.2182   13.0364   33.1895 H   0  0  0  0  0  0  0  0  0  0  0  0
   33.6431   13.2866   35.6266 H   0  0  0  0  0  0  0  0  0  0  0  0
   35.9494   13.2055   36.5223 H   0  0  0  0  0  0  0  0  0  0  0  0
   37.8824   12.8930   34.9996 H   0  0  0  0  0  0  0  0  0  0  0  0
   36.2469   15.0632   31.0198 H   0  0  0  0  0  0  0  0  0  0  0  0
   33.9743   16.0779   29.3567 H   0  0  0  0  0  0  0  0  0  0  0  0
   35.5451   16.8544   29.5822 H   0  0  0  0  0  0  0  0  0  0  0  0
   24.5383    4.0334   30.4538 H   0  0  0  0  0  0  0  0  0  0  0  0
   22.9662    5.9354   30.5761 H   0  0  0  0  0  0  0  0  0  0  0  0
   23.6351    8.0531   31.6834 H   0  0  0  0  0  0  0  0  0  0  0  0
   25.9075    8.2693   32.6709 H   0  0  0  0  0  0  0  0  0  0  0  0
   26.3823    3.0752   33.3218 H   0  0  0  0  0  0  0  0  0  0  0  0
   27.8811    1.1244   33.2458 H   0  0  0  0  0  0  0  0  0  0  0  0
   29.4623    2.4876   29.4697 H   0  0  0  0  0  0  0  0  0  0  0  0
   27.9515    4.4358   29.5465 H   0  0  0  0  0  0  0  0  0  0  0  0
  1  8  1  0
  8  9  1  0
  9 10  1  0
 10 11  1  0
 11 12  1  0
 12 13  1  0
 12 14  1  0
 14 15  2  0
 15 16  1  0
 16 17  1  0
 17 12  1  0
 16 18  2  0
 18 19  1  0
 19 20  2  0
 20 21  1  0
 21 17  2  0
 14 22  1  0
 22 23  2  0
 23 24  1  0
 24 25  2  0
 25 15  1  0
 13 26  2  0
 13 27  1  0
 27 28  1  0
  7 29  1  0
 29 30  1  0
 29 31  2  0
 30 32  1  0
 32 33  2  0
 33 34  1  0
 34 35  2  0
 35 36  1  0
 36 30  2  0
 32 37  1  0
 37 38  2  0
 38 39  1  0
 39 40  2  0
 40 41  1  0
 41 42  2  0
 42 37  1  0
 40 43  1  0
 28 44  1  0
  1  2  1  0
  2  3  1  0
 44 45  1  0
  3  4  1  0
 44 46  1  0
  4  5  1  0
 44 47  1  0
  5  6  1  0
 43 48  1  0
  6  1  1  0
 43 49  1  0
  4  7  1  0
 43 50  1  0
  2 51  1  0
  2 52  1  0
  3 53  1  0
  3 54  1  0
  4 55  1  0
  5 56  1  0
  5 57  1  0
  6 58  1  0
  6 59  1  0
  7 60  1  0
  8 61  1  0
  8 62  1  0
  9 63  1  0
  9 64  1  0
 10 65  1  0
 10 66  1  0
 11 67  1  0
 11 68  1  0
 18 69  1  0
 19 70  1  0
 20 71  1  0
 21 72  1  0
 22 73  1  0
 23 74  1  0
 24 75  1  0
 25 76  1  0
 27 77  1  0
 28 78  1  0
 28 79  1  0
 33 80  1  0
 34 81  1  0
 35 82  1  0
 36 83  1  0
 38 84  1  0
 39 85  1  0
 41 86  1  0
 42 87  1  0
M  END
> <Uni-Dock RESULT> 
ENERGY=   -3.899  LOWER_BOUND=    7.051  UPPER_BOUND=    8.754
INTER + INTRA:          -3.899
INTER:                  -3.899
INTRA:                   0.000
UNBOUND:                 0.000

$$$$

     RDKit          3D

 87 92  0  0  0  0  0  0  0  0999 V2000
   32.8445   10.0525   27.4466 N   0  0  0  0  0  0  0  0  0  0  0  0
   31.6821    9.2036   27.1322 C   0  0  0  0  0  0  0  0  0  0  0  0
   30.7699    9.0002   28.3399 C   0  0  0  0  0  0  0  0  0  0  0  0
   31.5087    8.2700   29.4698 C   0  0  0  0  0  0  0  0  0  0  0  0
   33.0197    8.5181   29.4202 C   0  0  0  0  0  0  0  0  0  0  0  0
   33.3327    9.8865   28.8267 C   0  0  0  0  0  0  0  0  0  0  0  0
   31.2483    6.8366   29.4396 N   0  0  0  0  0  0  0  0  0  0  0  0
   33.9069    9.8775   26.4415 C   0  0  0  0  0  0  0  0  0  0  0  0
   34.8898   11.0576   26.3966 C   0  0  0  0  0  0  0  0  0  0  0  0
   34.5178   12.1812   25.4190 C   0  0  0  0  0  0  0  0  0  0  0  0
   33.1605   12.8526   25.6689 C   0  0  0  0  0  0  0  0  0  0  0  0
   32.7754   13.9757   24.6606 C   0  0  0  0  0  0  0  0  0  0  0  0
   32.6002   13.4333   23.2160 C   0  0  0  0  0  0  0  0  0  0  0  0
   31.4413   14.5993   25.1252 C   0  0  0  0  0  0  0  0  0  0  0  0
   31.6279   15.9475   25.4915 C   0  0  0  0  0  0  0  0  0  0  0  0
   33.0090   16.3127   25.2725 C   0  0  0  0  0  0  0  0  0  0  0  0
   33.7083   15.2024   24.7496 C   0  0  0  0  0  0  0  0  0  0  0  0
   33.6506   17.5269   25.4623 C   0  0  0  0  0  0  0  0  0  0  0  0
   34.9975   17.6362   25.1073 C   0  0  0  0  0  0  0  0  0  0  0  0
   35.6813   16.5469   24.5485 C   0  0  0  0  0  0  0  0  0  0  0  0
   35.0373   15.3227   24.3590 C   0  0  0  0  0  0  0  0  0  0  0  0
   30.1893   13.9996   25.1950 C   0  0  0  0  0  0  0  0  0  0  0  0
   29.1173   14.7692   25.6476 C   0  0  0  0  0  0  0  0  0  0  0  0
   29.3012   16.1103   26.0230 C   0  0  0  0  0  0  0  0  0  0  0  0
   30.5616   16.7062   25.9439 C   0  0  0  0  0  0  0  0  0  0  0  0
   32.4550   12.2371   22.9638 O   0  0  0  0  0  0  0  0  0  0  0  0
   32.5606   14.3840   22.2094 N   0  0  0  0  0  0  0  0  0  0  0  0
   32.2420   14.0208   20.8295 C   0  0  0  0  0  0  0  0  0  0  0  0
   30.2078    6.2586   30.1303 C   0  0  0  0  0  0  0  0  0  0  0  0
   30.1192    4.7975   29.9387 C   0  0  0  0  0  0  0  0  0  0  0  0
   29.4067    6.8437   30.8455 O   0  0  0  0  0  0  0  0  0  0  0  0
   30.8633    3.9241   30.7544 C   0  0  0  0  0  0  0  0  0  0  0  0
   30.7681    2.5473   30.4910 C   0  0  0  0  0  0  0  0  0  0  0  0
   29.9536    2.0659   29.4578 C   0  0  0  0  0  0  0  0  0  0  0  0
   29.2207    2.9503   28.6686 C   0  0  0  0  0  0  0  0  0  0  0  0
   29.2990    4.3203   28.9065 C   0  0  0  0  0  0  0  0  0  0  0  0
   31.6960    4.3992   31.8681 C   0  0  0  0  0  0  0  0  0  0  0  0
   31.1473    4.5312   33.1525 C   0  0  0  0  0  0  0  0  0  0  0  0
   31.9289    4.9730   34.2234 C   0  0  0  0  0  0  0  0  0  0  0  0
   33.2833    5.2881   34.0370 C   0  0  0  0  0  0  0  0  0  0  0  0
   33.8315    5.1699   32.7509 C   0  0  0  0  0  0  0  0  0  0  0  0
   33.0478    4.7258   31.6807 C   0  0  0  0  0  0  0  0  0  0  0  0
   34.1168    5.7694   35.2016 C   0  0  0  0  0  0  0  0  0  0  0  0
   30.7594   14.1513   20.4625 C   0  0  0  0  0  0  0  0  0  0  0  0
   30.3568   15.4471   20.5485 F   0  0  0  0  0  0  0  0  0  0  0  0
   30.5555   13.7563   19.1834 F   0  0  0  0  0  0  0  0  0  0  0  0
   29.9538   13.4136   21.2597 F   0  0  0  0  0  0  0  0  0  0  0  0
   33.8281    7.0493   35.5644 F   0  0  0  0  0  0  0  0  0  0  0  0
   35.4582    5.7419   34.9516 F   0  0  0  0  0  0  0  0  0  0  0  0
   33.9345    5.0124   36.3219 F   0  0  0  0  0  0  0  0  0  0  0  0
   31.1096    9.6804   26.3274 H   0  0  0  0  0  0  0  0  0  0  0  0
   32.0019    8.2165   26.7660 H   0  0  0  0  0  0  0  0  0  0  0  0
   29.8623    8.4628   28.0437 H   0  0  0  0  0  0  0  0  0  0  0  0
   30.4440    9.9847   28.7006 H   0  0  0  0  0  0  0  0  0  0  0  0
   31.1189    8.6503   30.4219 H   0  0  0  0  0  0  0  0  0  0  0  0
   33.5237    7.7433   28.8268 H   0  0  0  0  0  0  0  0  0  0  0  0
   33.4363    8.4405   30.4318 H   0  0  0  0  0  0  0  0  0  0  0  0
   32.8567   10.6586   29.4439 H   0  0  0  0  0  0  0  0  0  0  0  0
   34.4108   10.0676   28.9102 H   0  0  0  0  0  0  0  0  0  0  0  0
   31.7540    6.2647   28.7760 H   0  0  0  0  0  0  0  0  0  0  0  0
   34.4566    8.9498   26.6466 H   0  0  0  0  0  0  0  0  0  0  0  0
   33.4722    9.7591   25.4417 H   0  0  0  0  0  0  0  0  0  0  0  0
   35.8696   10.6667   26.0858 H   0  0  0  0  0  0  0  0  0  0  0  0
   35.0503   11.4909   27.3914 H   0  0  0  0  0  0  0  0  0  0  0  0
   35.3142   12.9218   25.5033 H   0  0  0  0  0  0  0  0  0  0  0  0
   34.5625   11.7872   24.4015 H   0  0  0  0  0  0  0  0  0  0  0  0
   33.1574   13.2516   26.6905 H   0  0  0  0  0  0  0  0  0  0  0  0
   32.3812   12.0845   25.6412 H   0  0  0  0  0  0  0  0  0  0  0  0
   33.1245   18.3834   25.8685 H   0  0  0  0  0  0  0  0  0  0  0  0
   35.5170   18.5801   25.2544 H   0  0  0  0  0  0  0  0  0  0  0  0
   36.7245   16.6595   24.2637 H   0  0  0  0  0  0  0  0  0  0  0  0
   35.5757   14.4949   23.9084 H   0  0  0  0  0  0  0  0  0  0  0  0
   30.0394   12.9632   24.9005 H   0  0  0  0  0  0  0  0  0  0  0  0
   28.1269   14.3280   25.7143 H   0  0  0  0  0  0  0  0  0  0  0  0
   28.4524   16.6901   26.3794 H   0  0  0  0  0  0  0  0  0  0  0  0
   30.6919   17.7453   26.2262 H   0  0  0  0  0  0  0  0  0  0  0  0
   32.5465   15.3677   22.4671 H   0  0  0  0  0  0  0  0  0  0  0  0
   32.5680   12.9937   20.6440 H   0  0  0  0  0  0  0  0  0  0  0  0
   32.8369   14.6784   20.1850 H   0  0  0  0  0  0  0  0  0  0  0  0
   31.3301    1.8372   31.0990 H   0  0  0  0  0  0  0  0  0  0  0  0
   29.8964    0.9953   29.2716 H   0  0  0  0  0  0  0  0  0  0  0  0
   28.5874    2.5705   27.8702 H   0  0  0  0  0  0  0  0  0  0  0  0
   28.7241    5.0163   28.3001 H   0  0  0  0  0  0  0  0  0  0  0  0
   30.0964    4.3017   33.3234 H   0  0  0  0  0  0  0  0  0  0  0  0
   31.4746    5.0830   35.2071 H   0  0  0  0  0  0  0  0  0  0  0  0
   34.8777    5.4201   32.5759 H   0  0  0  0  0  0  0  0  0  0  0  0
   33.4943    4.6277   30.6938 H   0  0  0  0  0  0  0  0  0  0  0  0
  1  8  1  0
  8  9  1  0
  9 10  1  0
 10 11  1  0
 11 12  1  0
 12 13  1  0
 12 14  1  0
 14 15  2  0
 15 16  1  0
 16 17  1  0
 17 12  1  0
 16 18  2  0
 18 19  1  0
 19 20  2  0
 20 21  1  0
 21 17  2  0
 14 22  1  0
 22 23  2  0
 23 24  1  0
 24 25  2  0
 25 15  1  0
 13 26  2  0
 13 27  1  0
 27 28  1  0
  7 29  1  0
 29 30  1  0
 29 31  2  0
 30 32  1  0
 32 33  2  0
 33 34  1  0
 34 35  2  0
 35 36  1  0
 36 30  2  0
 32 37  1  0
 37 38  2  0
 38 39  1  0
 39 40  2  0
 40 41  1  0
 41 42  2  0
 42 37  1  0
 40 43  1  0
 28 44  1  0
  1  2  1  0
  2  3  1  0
 44 45  1  0
  3  4  1  0
 44 46  1  0
  4  5  1  0
 44 47  1  0
  5  6  1  0
 43 48  1  0
  6  1  1  0
 43 49  1  0
  4  7  1  0
 43 50  1  0
  2 51  1  0
  2 52  1  0
  3 53  1  0
  3 54  1  0
  4 55  1  0
  5 56  1  0
  5 57  1  0
  6 58  1  0
  6 59  1  0
  7 60  1  0
  8 61  1  0
  8 62  1  0
  9 63  1  0
  9 64  1  0
 10 65  1  0
 10 66  1  0
 11 67  1  0
 11 68  1  0
 18 69  1  0
 19 70  1  0
 20 71  1  0
 21 72  1  0
 22 73  1  0
 23 74  1  0
 24 75  1  0
 25 76  1  0
 27 77  1  0
 28 78  1  0
 28 79  1  0
 33 80  1  0
 34 81  1  0
 35 82  1  0
 36 83  1  0
 38 84  1  0
 39 85  1  0
 41 86  1  0
 42 87  1  0
M  END
> <Uni-Dock RESULT> 
ENERGY=   -3.855  LOWER_BOUND=    5.907  UPPER_BOUND=   11.103
INTER + INTRA:          -3.855
INTER:                  -3.855
INTRA:                   0.000
UNBOUND:                 0.000

$$$$

     RDKit          3D

 87 92  0  0  0  0  0  0  0  0999 V2000
   27.2211   11.4268   27.9429 N   0  0  0  0  0  0  0  0  0  0  0  0
   27.5903   11.3900   29.3687 C   0  0  0  0  0  0  0  0  0  0  0  0
   27.6783    9.9639   29.9076 C   0  0  0  0  0  0  0  0  0  0  0  0
   26.3167    9.2604   29.8254 C   0  0  0  0  0  0  0  0  0  0  0  0
   25.4480    9.8240   28.6963 C   0  0  0  0  0  0  0  0  0  0  0  0
   26.3067   10.3411   27.5482 C   0  0  0  0  0  0  0  0  0  0  0  0
   25.5933    9.3472   31.0873 N   0  0  0  0  0  0  0  0  0  0  0  0
   26.7190   12.7595   27.5670 C   0  0  0  0  0  0  0  0  0  0  0  0
   26.8076   13.0295   26.0571 C   0  0  0  0  0  0  0  0  0  0  0  0
   28.1146   13.6820   25.5852 C   0  0  0  0  0  0  0  0  0  0  0  0
   29.3946   12.8901   25.8850 C   0  0  0  0  0  0  0  0  0  0  0  0
   30.7208   13.5664   25.4265 C   0  0  0  0  0  0  0  0  0  0  0  0
   30.9896   14.9000   26.1757 C   0  0  0  0  0  0  0  0  0  0  0  0
   31.8811   12.5890   25.7148 C   0  0  0  0  0  0  0  0  0  0  0  0
   32.4864   12.1733   24.5117 C   0  0  0  0  0  0  0  0  0  0  0  0
   31.8400   12.8347   23.4011 C   0  0  0  0  0  0  0  0  0  0  0  0
   30.8278   13.6893   23.8915 C   0  0  0  0  0  0  0  0  0  0  0  0
   32.1058   12.7605   22.0425 C   0  0  0  0  0  0  0  0  0  0  0  0
   31.3664   13.5628   21.1699 C   0  0  0  0  0  0  0  0  0  0  0  0
   30.3906   14.4429   21.6595 C   0  0  0  0  0  0  0  0  0  0  0  0
   30.1199   14.5170   23.0272 C   0  0  0  0  0  0  0  0  0  0  0  0
   32.3399   12.1374   26.9467 C   0  0  0  0  0  0  0  0  0  0  0  0
   33.4163   11.2501   26.9609 C   0  0  0  0  0  0  0  0  0  0  0  0
   34.0158   10.8256   25.7635 C   0  0  0  0  0  0  0  0  0  0  0  0
   33.5519   11.2892   24.5308 C   0  0  0  0  0  0  0  0  0  0  0  0
   30.4136   15.2088   27.2190 O   0  0  0  0  0  0  0  0  0  0  0  0
   31.9667   15.7175   25.6319 N   0  0  0  0  0  0  0  0  0  0  0  0
   32.4265   16.9203   26.3241 C   0  0  0  0  0  0  0  0  0  0  0  0
   25.7077    8.3939   32.0732 C   0  0  0  0  0  0  0  0  0  0  0  0
   24.9032    8.6951   33.2737 C   0  0  0  0  0  0  0  0  0  0  0  0
   26.3898    7.3803   32.0175 O   0  0  0  0  0  0  0  0  0  0  0  0
   23.5538    8.3000   33.3465 C   0  0  0  0  0  0  0  0  0  0  0  0
   22.8322    8.6564   34.4980 C   0  0  0  0  0  0  0  0  0  0  0  0
   23.4408    9.3720   35.5373 C   0  0  0  0  0  0  0  0  0  0  0  0
   24.7803    9.7455   35.4450 C   0  0  0  0  0  0  0  0  0  0  0  0
   25.5181    9.4073   34.3132 C   0  0  0  0  0  0  0  0  0  0  0  0
   22.9012    7.5170   32.2880 C   0  0  0  0  0  0  0  0  0  0  0  0
   22.9256    6.1151   32.3311 C   0  0  0  0  0  0  0  0  0  0  0  0
   22.3015    5.3569   31.3368 C   0  0  0  0  0  0  0  0  0  0  0  0
   21.6304    5.9838   30.2760 C   0  0  0  0  0  0  0  0  0  0  0  0
   21.6157    7.3857   30.2230 C   0  0  0  0  0  0  0  0  0  0  0  0
   22.2395    8.1427   31.2204 C   0  0  0  0  0  0  0  0  0  0  0  0
   20.9637    5.1533   29.2044 C   0  0  0  0  0  0  0  0  0  0  0  0
   33.6591   16.7127   27.2115 C   0  0  0  0  0  0  0  0  0  0  0  0
   34.7338   16.3502   26.4615 F   0  0  0  0  0  0  0  0  0  0  0  0
   33.9852   17.8669   27.8403 F   0  0  0  0  0  0  0  0  0  0  0  0
   33.4732   15.7624   28.1552 F   0  0  0  0  0  0  0  0  0  0  0  0
   21.8550    4.5768   28.3520 F   0  0  0  0  0  0  0  0  0  0  0  0
   20.1050    5.8709   28.4233 F   0  0  0  0  0  0  0  0  0  0  0  0
   20.2245    4.1298   29.7218 F   0  0  0  0  0  0  0  0  0  0  0  0
   28.5646   11.8791   29.4893 H   0  0  0  0  0  0  0  0  0  0  0  0
   26.8654   11.9497   29.9786 H   0  0  0  0  0  0  0  0  0  0  0  0
   28.0640    9.9688   30.9331 H   0  0  0  0  0  0  0  0  0  0  0  0
   28.4077    9.4075   29.3043 H   0  0  0  0  0  0  0  0  0  0  0  0
   26.5031    8.1971   29.6311 H   0  0  0  0  0  0  0  0  0  0  0  0
   24.8088   10.6379   29.0641 H   0  0  0  0  0  0  0  0  0  0  0  0
   24.7653    9.0447   28.3365 H   0  0  0  0  0  0  0  0  0  0  0  0
   26.9168    9.5155   27.1611 H   0  0  0  0  0  0  0  0  0  0  0  0
   25.6489   10.6326   26.7210 H   0  0  0  0  0  0  0  0  0  0  0  0
   25.1062   10.2052   31.3102 H   0  0  0  0  0  0  0  0  0  0  0  0
   25.6780   12.8661   27.8983 H   0  0  0  0  0  0  0  0  0  0  0  0
   27.2853   13.5422   28.0859 H   0  0  0  0  0  0  0  0  0  0  0  0
   25.9878   13.7119   25.7894 H   0  0  0  0  0  0  0  0  0  0  0  0
   26.6331   12.1191   25.4705 H   0  0  0  0  0  0  0  0  0  0  0  0
   28.0077   13.8118   24.5075 H   0  0  0  0  0  0  0  0  0  0  0  0
   28.1801   14.6830   26.0166 H   0  0  0  0  0  0  0  0  0  0  0  0
   29.3022   11.8997   25.4231 H   0  0  0  0  0  0  0  0  0  0  0  0
   29.4529   12.7170   26.9641 H   0  0  0  0  0  0  0  0  0  0  0  0
   32.8764   12.1034   21.6553 H   0  0  0  0  0  0  0  0  0  0  0  0
   31.5589   13.5131   20.1007 H   0  0  0  0  0  0  0  0  0  0  0  0
   29.8391   15.0706   20.9638 H   0  0  0  0  0  0  0  0  0  0  0  0
   29.3744   15.2166   23.3916 H   0  0  0  0  0  0  0  0  0  0  0  0
   31.8835   12.4667   27.8776 H   0  0  0  0  0  0  0  0  0  0  0  0
   33.7964   10.8785   27.9084 H   0  0  0  0  0  0  0  0  0  0  0  0
   34.8499   10.1278   25.7978 H   0  0  0  0  0  0  0  0  0  0  0  0
   34.0278   10.9639   23.6120 H   0  0  0  0  0  0  0  0  0  0  0  0
   32.5154   15.3688   24.8498 H   0  0  0  0  0  0  0  0  0  0  0  0
   31.6102   17.3190   26.9325 H   0  0  0  0  0  0  0  0  0  0  0  0
   32.6549   17.6619   25.5497 H   0  0  0  0  0  0  0  0  0  0  0  0
   21.7836    8.3709   34.5927 H   0  0  0  0  0  0  0  0  0  0  0  0
   22.8616    9.6380   36.4193 H   0  0  0  0  0  0  0  0  0  0  0  0
   25.2484   10.2978   36.2565 H   0  0  0  0  0  0  0  0  0  0  0  0
   26.5660    9.6882   34.2371 H   0  0  0  0  0  0  0  0  0  0  0  0
   23.4469    5.6027   33.1386 H   0  0  0  0  0  0  0  0  0  0  0  0
   22.3495    4.2699   31.3843 H   0  0  0  0  0  0  0  0  0  0  0  0
   21.1123    7.8980   29.4034 H   0  0  0  0  0  0  0  0  0  0  0  0
   22.2057    9.2286   31.1691 H   0  0  0  0  0  0  0  0  0  0  0  0
  1  8  1  0
  8  9  1  0
  9 10  1  0
 10 11  1  0
 11 12  1  0
 12 13  1  0
 12 14  1  0
 14 15  2  0
 15 16  1  0
 16 17  1  0
 17 12  1  0
 16 18  2  0
 18 19  1  0
 19 20  2  0
 20 21  1  0
 21 17  2  0
 14 22  1  0
 22 23  2  0
 23 24  1  0
 24 25  2  0
 25 15  1  0
 13 26  2  0
 13 27  1  0
 27 28  1  0
  7 29  1  0
 29 30  1  0
 29 31  2  0
 30 32  1  0
 32 33  2  0
 33 34  1  0
 34 35  2  0
 35 36  1  0
 36 30  2  0
 32 37  1  0
 37 38  2  0
 38 39  1  0
 39 40  2  0
 40 41  1  0
 41 42  2  0
 42 37  1  0
 40 43  1  0
 28 44  1  0
  1  2  1  0
  2  3  1  0
 44 45  1  0
  3  4  1  0
 44 46  1  0
  4  5  1  0
 44 47  1  0
  5  6  1  0
 43 48  1  0
  6  1  1  0
 43 49  1  0
  4  7  1  0
 43 50  1  0
  2 51  1  0
  2 52  1  0
  3 53  1  0
  3 54  1  0
  4 55  1  0
  5 56  1  0
  5 57  1  0
  6 58  1  0
  6 59  1  0
  7 60  1  0
  8 61  1  0
  8 62  1  0
  9 63  1  0
  9 64  1  0
 10 65  1  0
 10 66  1  0
 11 67  1  0
 11 68  1  0
 18 69  1  0
 19 70  1  0
 20 71  1  0
 21 72  1  0
 22 73  1  0
 23 74  1  0
 24 75  1  0
 25 76  1  0
 27 77  1  0
 28 78  1  0
 28 79  1  0
 33 80  1  0
 34 81  1  0
 35 82  1  0
 36 83  1  0
 38 84  1  0
 39 85  1  0
 41 86  1  0
 42 87  1  0
M  END
> <Uni-Dock RESULT> 
ENERGY=   -3.855  LOWER_BOUND=    7.048  UPPER_BOUND=   10.212
INTER + INTRA:          -3.855
INTER:                  -3.855
INTRA:                   0.000
UNBOUND:                 0.000

$$$$
