
     RDKit          3D

 87 92  0  0  0  0  0  0  0  0999 V2000
   26.6933   10.7211   27.5251 N   0  0  0  0  0  0  0  0  0  0  0  0
   27.4814   10.0139   28.5465 C   0  0  0  0  0  0  0  0  0  0  0  0
   26.6676    9.7962   29.8252 C   0  0  0  0  0  0  0  0  0  0  0  0
   25.3729    9.0404   29.5311 C   0  0  0  0  0  0  0  0  0  0  0  0
   24.5846    9.7607   28.4349 C   0  0  0  0  0  0  0  0  0  0  0  0
   25.4613    9.9743   27.2031 C   0  0  0  0  0  0  0  0  0  0  0  0
   24.5696    8.8804   30.7373 N   0  0  0  0  0  0  0  0  0  0  0  0
   27.4610   10.9435   26.2835 C   0  0  0  0  0  0  0  0  0  0  0  0
   28.6536   11.9013   26.4532 C   0  0  0  0  0  0  0  0  0  0  0  0
   29.3185   12.2454   25.1115 C   0  0  0  0  0  0  0  0  0  0  0  0
   28.5370   13.3107   24.3192 C   0  0  0  0  0  0  0  0  0  0  0  0
   29.0284   13.5630   22.8672 C   0  0  0  0  0  0  0  0  0  0  0  0
   28.1765   14.7009   22.2338 C   0  0  0  0  0  0  0  0  0  0  0  0
   30.5122   13.9576   22.7979 C   0  0  0  0  0  0  0  0  0  0  0  0
   31.2351   13.0197   22.0282 C   0  0  0  0  0  0  0  0  0  0  0  0
   30.3297   11.9901   21.5613 C   0  0  0  0  0  0  0  0  0  0  0  0
   29.0258   12.2693   22.0330 C   0  0  0  0  0  0  0  0  0  0  0  0
   30.5661   10.8761   20.7734 C   0  0  0  0  0  0  0  0  0  0  0  0
   29.4901   10.0390   20.4609 C   0  0  0  0  0  0  0  0  0  0  0  0
   28.1988   10.3161   20.9362 C   0  0  0  0  0  0  0  0  0  0  0  0
   27.9554   11.4385   21.7296 C   0  0  0  0  0  0  0  0  0  0  0  0
   31.1365   15.0615   23.3611 C   0  0  0  0  0  0  0  0  0  0  0  0
   32.5085   15.2187   23.1535 C   0  0  0  0  0  0  0  0  0  0  0  0
   33.2318   14.2860   22.3940 C   0  0  0  0  0  0  0  0  0  0  0  0
   32.5965   13.1798   21.8249 C   0  0  0  0  0  0  0  0  0  0  0  0
   27.7812   15.6683   22.8921 O   0  0  0  0  0  0  0  0  0  0  0  0
   27.9524   14.6301   20.8687 N   0  0  0  0  0  0  0  0  0  0  0  0
   27.2854   15.7121   20.1388 C   0  0  0  0  0  0  0  0  0  0  0  0
   23.6293    7.8759   30.8518 C   0  0  0  0  0  0  0  0  0  0  0  0
   22.7958    7.9442   32.0742 C   0  0  0  0  0  0  0  0  0  0  0  0
   23.4386    7.0035   30.0160 O   0  0  0  0  0  0  0  0  0  0  0  0
   22.8113    6.9084   33.0266 C   0  0  0  0  0  0  0  0  0  0  0  0
   21.9693    7.0354   34.1486 C   0  0  0  0  0  0  0  0  0  0  0  0
   21.1408    8.1509   34.3093 C   0  0  0  0  0  0  0  0  0  0  0  0
   21.1376    9.1649   33.3539 C   0  0  0  0  0  0  0  0  0  0  0  0
   21.9650    9.0653   32.2349 C   0  0  0  0  0  0  0  0  0  0  0  0
   23.6700    5.7236   32.9100 C   0  0  0  0  0  0  0  0  0  0  0  0
   23.1928    4.5600   32.2886 C   0  0  0  0  0  0  0  0  0  0  0  0
   23.9905    3.4169   32.2023 C   0  0  0  0  0  0  0  0  0  0  0  0
   25.2843    3.4066   32.7436 C   0  0  0  0  0  0  0  0  0  0  0  0
   25.7698    4.5734   33.3578 C   0  0  0  0  0  0  0  0  0  0  0  0
   24.9702    5.7186   33.4391 C   0  0  0  0  0  0  0  0  0  0  0  0
   26.1456    2.1735   32.6312 C   0  0  0  0  0  0  0  0  0  0  0  0
   26.4718   15.2518   18.9251 C   0  0  0  0  0  0  0  0  0  0  0  0
   25.4583   14.4302   19.2825 F   0  0  0  0  0  0  0  0  0  0  0  0
   25.9322   16.3075   18.2714 F   0  0  0  0  0  0  0  0  0  0  0  0
   27.2591   14.5806   18.0499 F   0  0  0  0  0  0  0  0  0  0  0  0
   27.1175    2.1149   33.5837 F   0  0  0  0  0  0  0  0  0  0  0  0
   25.4378    1.0140   32.7543 F   0  0  0  0  0  0  0  0  0  0  0  0
   26.7933    2.0935   31.4364 F   0  0  0  0  0  0  0  0  0  0  0  0
   28.3646   10.5995   28.8214 H   0  0  0  0  0  0  0  0  0  0  0  0
   27.8357    9.0484   28.1662 H   0  0  0  0  0  0  0  0  0  0  0  0
   26.4404   10.7686   30.2818 H   0  0  0  0  0  0  0  0  0  0  0  0
   27.2684    9.2405   30.5562 H   0  0  0  0  0  0  0  0  0  0  0  0
   25.6287    8.0357   29.1691 H   0  0  0  0  0  0  0  0  0  0  0  0
   24.2156   10.7286   28.8071 H   0  0  0  0  0  0  0  0  0  0  0  0
   23.6959    9.1759   28.1529 H   0  0  0  0  0  0  0  0  0  0  0  0
   25.7089    9.0004   26.7564 H   0  0  0  0  0  0  0  0  0  0  0  0
   24.8715   10.5320   26.4636 H   0  0  0  0  0  0  0  0  0  0  0  0
   24.5828    9.6178   31.4317 H   0  0  0  0  0  0  0  0  0  0  0  0
   27.8126    9.9878   25.8683 H   0  0  0  0  0  0  0  0  0  0  0  0
   26.7865   11.3800   25.5377 H   0  0  0  0  0  0  0  0  0  0  0  0
   29.4117   11.4204   27.0823 H   0  0  0  0  0  0  0  0  0  0  0  0
   28.3432   12.8217   26.9657 H   0  0  0  0  0  0  0  0  0  0  0  0
   30.3249   12.6272   25.3164 H   0  0  0  0  0  0  0  0  0  0  0  0
   29.4425   11.3249   24.5329 H   0  0  0  0  0  0  0  0  0  0  0  0
   27.4739   13.0394   24.2799 H   0  0  0  0  0  0  0  0  0  0  0  0
   28.5814   14.2461   24.8957 H   0  0  0  0  0  0  0  0  0  0  0  0
   31.5593   10.6487   20.4012 H   0  0  0  0  0  0  0  0  0  0  0  0
   29.6571    9.1592   19.8429 H   0  0  0  0  0  0  0  0  0  0  0  0
   27.3806    9.6455   20.6836 H   0  0  0  0  0  0  0  0  0  0  0  0
   26.9559   11.6517   22.0930 H   0  0  0  0  0  0  0  0  0  0  0  0
   30.5749   15.7946   23.9367 H   0  0  0  0  0  0  0  0  0  0  0  0
   33.0233   16.0762   23.5824 H   0  0  0  0  0  0  0  0  0  0  0  0
   34.3003   14.4295   22.2439 H   0  0  0  0  0  0  0  0  0  0  0  0
   33.1667   12.4619   21.2436 H   0  0  0  0  0  0  0  0  0  0  0  0
   28.5119   13.9844   20.3245 H   0  0  0  0  0  0  0  0  0  0  0  0
   26.6316   16.2687   20.8212 H   0  0  0  0  0  0  0  0  0  0  0  0
   28.0785   16.3963   19.8108 H   0  0  0  0  0  0  0  0  0  0  0  0
   21.9541    6.2522   34.9064 H   0  0  0  0  0  0  0  0  0  0  0  0
   20.4875    8.2200   35.1787 H   0  0  0  0  0  0  0  0  0  0  0  0
   20.4851   10.0273   33.4771 H   0  0  0  0  0  0  0  0  0  0  0  0
   21.9458    9.8484   31.4804 H   0  0  0  0  0  0  0  0  0  0  0  0
   22.1924    4.5442   31.8576 H   0  0  0  0  0  0  0  0  0  0  0  0
   23.5915    2.5305   31.7125 H   0  0  0  0  0  0  0  0  0  0  0  0
   26.7763    4.5936   33.7803 H   0  0  0  0  0  0  0  0  0  0  0  0
   25.3689    6.6093   33.9220 H   0  0  0  0  0  0  0  0  0  0  0  0
  1  8  1  0
  8  9  1  0
  9 10  1  0
 10 11  1  0
 11 12  1  0
 12 13  1  0
 12 14  1  0
 14 15  2  0
 15 16  1  0
 16 17  1  0
 17 12  1  0
 16 18  2  0
 18 19  1  0
 19 20  2  0
 20 21  1  0
 21 17  2  0
 14 22  1  0
 22 23  2  0
 23 24  1  0
 24 25  2  0
 25 15  1  0
 13 26  2  0
 13 27  1  0
 27 28  1  0
  7 29  1  0
 29 30  1  0
 29 31  2  0
 30 32  1  0
 32 33  2  0
 33 34  1  0
 34 35  2  0
 35 36  1  0
 36 30  2  0
 32 37  1  0
 37 38  2  0
 38 39  1  0
 39 40  2  0
 40 41  1  0
 41 42  2  0
 42 37  1  0
 40 43  1  0
 28 44  1  0
  1  2  1  0
  2  3  1  0
 44 45  1  0
  3  4  1  0
 44 46  1  0
  4  5  1  0
 44 47  1  0
  5  6  1  0
 43 48  1  0
  6  1  1  0
 43 49  1  0
  4  7  1  0
 43 50  1  0
  2 51  1  0
  2 52  1  0
  3 53  1  0
  3 54  1  0
  4 55  1  0
  5 56  1  0
  5 57  1  0
  6 58  1  0
  6 59  1  0
  7 60  1  0
  8 61  1  0
  8 62  1  0
  9 63  1  0
  9 64  1  0
 10 65  1  0
 10 66  1  0
 11 67  1  0
 11 68  1  0
 18 69  1  0
 19 70  1  0
 20 71  1  0
 21 72  1  0
 22 73  1  0
 23 74  1  0
 24 75  1  0
 25 76  1  0
 27 77  1  0
 28 78  1  0
 28 79  1  0
 33 80  1  0
 34 81  1  0
 35 82  1  0
 36 83  1  0
 38 84  1  0
 39 85  1  0
 41 86  1  0
 42 87  1  0
M  END
> <Uni-Dock RESULT> 
ENERGY=   -4.573  LOWER_BOUND=    0.000  UPPER_BOUND=    0.000
INTER + INTRA:          -4.573
INTER:                  -4.573
INTRA:                   0.000
UNBOUND:                 0.000

$$$$

     RDKit          3D

 87 92  0  0  0  0  0  0  0  0999 V2000
   32.2715   11.2943   28.2642 N   0  0  0  0  0  0  0  0  0  0  0  0
   31.8088   10.1619   27.4467 C   0  0  0  0  0  0  0  0  0  0  0  0
   30.5128   10.5033   26.7062 C   0  0  0  0  0  0  0  0  0  0  0  0
   30.6854   11.7511   25.8419 C   0  0  0  0  0  0  0  0  0  0  0  0
   31.2109   12.9086   26.6940 C   0  0  0  0  0  0  0  0  0  0  0  0
   32.4832   12.4926   27.4285 C   0  0  0  0  0  0  0  0  0  0  0  0
   29.4375   12.1108   25.1791 N   0  0  0  0  0  0  0  0  0  0  0  0
   33.5202   10.9851   28.9893 C   0  0  0  0  0  0  0  0  0  0  0  0
   33.3626    9.8912   30.0603 C   0  0  0  0  0  0  0  0  0  0  0  0
   34.6316    9.7219   30.9097 C   0  0  0  0  0  0  0  0  0  0  0  0
   34.7673   10.8070   31.9948 C   0  0  0  0  0  0  0  0  0  0  0  0
   36.1200   10.8282   32.7583 C   0  0  0  0  0  0  0  0  0  0  0  0
   36.0689   11.9356   33.8504 C   0  0  0  0  0  0  0  0  0  0  0  0
   36.4493    9.4853   33.4295 C   0  0  0  0  0  0  0  0  0  0  0  0
   37.6590    8.9642   32.9197 C   0  0  0  0  0  0  0  0  0  0  0  0
   38.1865    9.8753   31.9249 C   0  0  0  0  0  0  0  0  0  0  0  0
   37.3132   10.9805   31.7977 C   0  0  0  0  0  0  0  0  0  0  0  0
   39.3411    9.8034   31.1638 C   0  0  0  0  0  0  0  0  0  0  0  0
   39.6175   10.8434   30.2704 C   0  0  0  0  0  0  0  0  0  0  0  0
   38.7450   11.9355   30.1424 C   0  0  0  0  0  0  0  0  0  0  0  0
   37.5807   12.0129   30.9085 C   0  0  0  0  0  0  0  0  0  0  0  0
   35.7336    8.8155   34.4117 C   0  0  0  0  0  0  0  0  0  0  0  0
   36.2383    7.6009   34.8809 C   0  0  0  0  0  0  0  0  0  0  0  0
   37.4371    7.0768   34.3731 C   0  0  0  0  0  0  0  0  0  0  0  0
   38.1560    7.7585   33.3885 C   0  0  0  0  0  0  0  0  0  0  0  0
   35.0380   12.1856   34.4832 O   0  0  0  0  0  0  0  0  0  0  0  0
   37.2603   12.5755   34.1502 N   0  0  0  0  0  0  0  0  0  0  0  0
   37.3652   13.5342   35.2539 C   0  0  0  0  0  0  0  0  0  0  0  0
   29.4241   12.8718   24.0272 C   0  0  0  0  0  0  0  0  0  0  0  0
   28.0753   13.2753   23.5672 C   0  0  0  0  0  0  0  0  0  0  0  0
   30.4232   13.2399   23.4252 O   0  0  0  0  0  0  0  0  0  0  0  0
   27.5778   12.8646   22.3165 C   0  0  0  0  0  0  0  0  0  0  0  0
   26.2968   13.3133   21.9399 C   0  0  0  0  0  0  0  0  0  0  0  0
   25.5454   14.1438   22.7779 C   0  0  0  0  0  0  0  0  0  0  0  0
   26.0564   14.5418   24.0114 C   0  0  0  0  0  0  0  0  0  0  0  0
   27.3213   14.1084   24.4099 C   0  0  0  0  0  0  0  0  0  0  0  0
   28.3215   11.9854   21.4062 C   0  0  0  0  0  0  0  0  0  0  0  0
   29.1499   12.5295   20.4135 C   0  0  0  0  0  0  0  0  0  0  0  0
   29.8356   11.7019   19.5217 C   0  0  0  0  0  0  0  0  0  0  0  0
   29.7029   10.3077   19.5954 C   0  0  0  0  0  0  0  0  0  0  0  0
   28.8820    9.7583   20.5948 C   0  0  0  0  0  0  0  0  0  0  0  0
   28.1997   10.5895   21.4898 C   0  0  0  0  0  0  0  0  0  0  0  0
   30.4601    9.4203   18.6392 C   0  0  0  0  0  0  0  0  0  0  0  0
   38.3941   14.6474   35.0323 C   0  0  0  0  0  0  0  0  0  0  0  0
   38.0796   15.4164   33.9649 F   0  0  0  0  0  0  0  0  0  0  0  0
   38.4741   15.4592   36.1129 F   0  0  0  0  0  0  0  0  0  0  0  0
   39.6248   14.1231   34.8158 F   0  0  0  0  0  0  0  0  0  0  0  0
   29.8868    8.1946   18.4837 F   0  0  0  0  0  0  0  0  0  0  0  0
   30.5549    9.9453   17.3838 F   0  0  0  0  0  0  0  0  0  0  0  0
   31.7377    9.1824   19.0447 F   0  0  0  0  0  0  0  0  0  0  0  0
   31.6002    9.2934   28.0796 H   0  0  0  0  0  0  0  0  0  0  0  0
   32.5779    9.8624   26.7248 H   0  0  0  0  0  0  0  0  0  0  0  0
   29.7072   10.6593   27.4359 H   0  0  0  0  0  0  0  0  0  0  0  0
   30.2085    9.6538   26.0817 H   0  0  0  0  0  0  0  0  0  0  0  0
   31.4247   11.5351   25.0592 H   0  0  0  0  0  0  0  0  0  0  0  0
   30.4443   13.2249   27.4178 H   0  0  0  0  0  0  0  0  0  0  0  0
   31.4241   13.7848   26.0630 H   0  0  0  0  0  0  0  0  0  0  0  0
   33.2859   12.3141   26.6985 H   0  0  0  0  0  0  0  0  0  0  0  0
   32.7974   13.3346   28.0595 H   0  0  0  0  0  0  0  0  0  0  0  0
   28.5638   11.9431   25.6633 H   0  0  0  0  0  0  0  0  0  0  0  0
   34.3166   10.7000   28.2865 H   0  0  0  0  0  0  0  0  0  0  0  0
   33.8587   11.8981   29.4927 H   0  0  0  0  0  0  0  0  0  0  0  0
   33.1670    8.9325   29.5662 H   0  0  0  0  0  0  0  0  0  0  0  0
   32.5019   10.1033   30.7089 H   0  0  0  0  0  0  0  0  0  0  0  0
   34.5892    8.7410   31.3962 H   0  0  0  0  0  0  0  0  0  0  0  0
   35.5011    9.7067   30.2454 H   0  0  0  0  0  0  0  0  0  0  0  0
   34.6075   11.7985   31.5512 H   0  0  0  0  0  0  0  0  0  0  0  0
   33.9402   10.6651   32.7054 H   0  0  0  0  0  0  0  0  0  0  0  0
   40.0230    8.9643   31.2508 H   0  0  0  0  0  0  0  0  0  0  0  0
   40.5202   10.8039   29.6642 H   0  0  0  0  0  0  0  0  0  0  0  0
   38.9803   12.7281   29.4358 H   0  0  0  0  0  0  0  0  0  0  0  0
   36.9098   12.8596   30.8096 H   0  0  0  0  0  0  0  0  0  0  0  0
   34.8123    9.2278   34.8185 H   0  0  0  0  0  0  0  0  0  0  0  0
   35.6981    7.0553   35.6521 H   0  0  0  0  0  0  0  0  0  0  0  0
   37.8126    6.1290   34.7548 H   0  0  0  0  0  0  0  0  0  0  0  0
   39.0795    7.3414   32.9991 H   0  0  0  0  0  0  0  0  0  0  0  0
   38.1227   12.1630   33.8152 H   0  0  0  0  0  0  0  0  0  0  0  0
   36.3835   13.9837   35.4463 H   0  0  0  0  0  0  0  0  0  0  0  0
   37.6407   12.9515   36.1423 H   0  0  0  0  0  0  0  0  0  0  0  0
   25.8795   13.0162   20.9778 H   0  0  0  0  0  0  0  0  0  0  0  0
   24.5626   14.4897   22.4584 H   0  0  0  0  0  0  0  0  0  0  0  0
   25.4731   15.1955   24.6572 H   0  0  0  0  0  0  0  0  0  0  0  0
   27.7263   14.4369   25.3644 H   0  0  0  0  0  0  0  0  0  0  0  0
   29.2718   13.6095   20.3380 H   0  0  0  0  0  0  0  0  0  0  0  0
   30.4718   12.1552   18.7636 H   0  0  0  0  0  0  0  0  0  0  0  0
   28.7679    8.6757   20.6782 H   0  0  0  0  0  0  0  0  0  0  0  0
   27.5681   10.1391   22.2539 H   0  0  0  0  0  0  0  0  0  0  0  0
  1  8  1  0
  8  9  1  0
  9 10  1  0
 10 11  1  0
 11 12  1  0
 12 13  1  0
 12 14  1  0
 14 15  2  0
 15 16  1  0
 16 17  1  0
 17 12  1  0
 16 18  2  0
 18 19  1  0
 19 20  2  0
 20 21  1  0
 21 17  2  0
 14 22  1  0
 22 23  2  0
 23 24  1  0
 24 25  2  0
 25 15  1  0
 13 26  2  0
 13 27  1  0
 27 28  1  0
  7 29  1  0
 29 30  1  0
 29 31  2  0
 30 32  1  0
 32 33  2  0
 33 34  1  0
 34 35  2  0
 35 36  1  0
 36 30  2  0
 32 37  1  0
 37 38  2  0
 38 39  1  0
 39 40  2  0
 40 41  1  0
 41 42  2  0
 42 37  1  0
 40 43  1  0
 28 44  1  0
  1  2  1  0
  2  3  1  0
 44 45  1  0
  3  4  1  0
 44 46  1  0
  4  5  1  0
 44 47  1  0
  5  6  1  0
 43 48  1  0
  6  1  1  0
 43 49  1  0
  4  7  1  0
 43 50  1  0
  2 51  1  0
  2 52  1  0
  3 53  1  0
  3 54  1  0
  4 55  1  0
  5 56  1  0
  5 57  1  0
  6 58  1  0
  6 59  1  0
  7 60  1  0
  8 61  1  0
  8 62  1  0
  9 63  1  0
  9 64  1  0
 10 65  1  0
 10 66  1  0
 11 67  1  0
 11 68  1  0
 18 69  1  0
 19 70  1  0
 20 71  1  0
 21 72  1  0
 22 73  1  0
 23 74  1  0
 24 75  1  0
 25 76  1  0
 27 77  1  0
 28 78  1  0
 28 79  1  0
 33 80  1  0
 34 81  1  0
 35 82  1  0
 36 83  1  0
 38 84  1  0
 39 85  1  0
 41 86  1  0
 42 87  1  0
M  END
> <Uni-Dock RESULT> 
ENERGY=   -4.059  LOWER_BOUND=    8.551  UPPER_BOUND=   13.613
INTER + INTRA:          -4.059
INTER:                  -4.059
INTRA:                   0.000
UNBOUND:                 0.000

$$$$

     RDKit          3D

 87 92  0  0  0  0  0  0  0  0999 V2000
   28.3683   12.0214   30.0309 N   0  0  0  0  0  0  0  0  0  0  0  0
   28.2149   11.0601   31.1341 C   0  0  0  0  0  0  0  0  0  0  0  0
   26.7447   10.8971   31.5296 C   0  0  0  0  0  0  0  0  0  0  0  0
   25.8963   10.4752   30.3312 C   0  0  0  0  0  0  0  0  0  0  0  0
   26.1001   11.4567   29.1749 C   0  0  0  0  0  0  0  0  0  0  0  0
   27.5861   11.5973   28.8531 C   0  0  0  0  0  0  0  0  0  0  0  0
   24.4872   10.3732   30.6919 N   0  0  0  0  0  0  0  0  0  0  0  0
   29.7803   12.1953   29.6351 C   0  0  0  0  0  0  0  0  0  0  0  0
   30.6544   12.8481   30.7207 C   0  0  0  0  0  0  0  0  0  0  0  0
   32.0674   13.1727   30.2122 C   0  0  0  0  0  0  0  0  0  0  0  0
   32.1106   14.4570   29.3625 C   0  0  0  0  0  0  0  0  0  0  0  0
   33.4575   14.7413   28.6426 C   0  0  0  0  0  0  0  0  0  0  0  0
   33.3509   16.0954   27.8831 C   0  0  0  0  0  0  0  0  0  0  0  0
   34.6503   14.8081   29.6096 C   0  0  0  0  0  0  0  0  0  0  0  0
   35.6033   13.8177   29.2843 C   0  0  0  0  0  0  0  0  0  0  0  0
   35.1321   13.0626   28.1416 C   0  0  0  0  0  0  0  0  0  0  0  0
   33.8759   13.5702   27.7354 C   0  0  0  0  0  0  0  0  0  0  0  0
   35.7162   12.0092   27.4585 C   0  0  0  0  0  0  0  0  0  0  0  0
   35.0352   11.4625   26.3660 C   0  0  0  0  0  0  0  0  0  0  0  0
   33.7859   11.9648   25.9699 C   0  0  0  0  0  0  0  0  0  0  0  0
   33.1937   13.0274   26.6546 C   0  0  0  0  0  0  0  0  0  0  0  0
   34.8557   15.6869   30.6637 C   0  0  0  0  0  0  0  0  0  0  0  0
   36.0323   15.5614   31.4053 C   0  0  0  0  0  0  0  0  0  0  0  0
   36.9793   14.5751   31.0890 C   0  0  0  0  0  0  0  0  0  0  0  0
   36.7695   13.6971   30.0231 C   0  0  0  0  0  0  0  0  0  0  0  0
   32.7189   17.0543   28.3376 O   0  0  0  0  0  0  0  0  0  0  0  0
   34.0744   16.2132   26.7078 N   0  0  0  0  0  0  0  0  0  0  0  0
   34.1638   17.4825   25.9803 C   0  0  0  0  0  0  0  0  0  0  0  0
   23.6102    9.5914   29.9668 C   0  0  0  0  0  0  0  0  0  0  0  0
   22.1906    9.7160   30.3704 C   0  0  0  0  0  0  0  0  0  0  0  0
   23.9309    8.8704   29.0323 O   0  0  0  0  0  0  0  0  0  0  0  0
   21.4730    8.6110   30.8647 C   0  0  0  0  0  0  0  0  0  0  0  0
   20.1189    8.8045   31.2009 C   0  0  0  0  0  0  0  0  0  0  0  0
   19.5053   10.0517   31.0441 C   0  0  0  0  0  0  0  0  0  0  0  0
   20.2319   11.1331   30.5505 C   0  0  0  0  0  0  0  0  0  0  0  0
   21.5758   10.9690   30.2134 C   0  0  0  0  0  0  0  0  0  0  0  0
   22.0732    7.2855   31.0583 C   0  0  0  0  0  0  0  0  0  0  0  0
   22.0101    6.3226   30.0401 C   0  0  0  0  0  0  0  0  0  0  0  0
   22.5492    5.0479   30.2271 C   0  0  0  0  0  0  0  0  0  0  0  0
   23.1582    4.7014   31.4421 C   0  0  0  0  0  0  0  0  0  0  0  0
   23.2325    5.6663   32.4607 C   0  0  0  0  0  0  0  0  0  0  0  0
   22.6957    6.9440   32.2693 C   0  0  0  0  0  0  0  0  0  0  0  0
   23.7529    3.3280   31.6298 C   0  0  0  0  0  0  0  0  0  0  0  0
   34.3088   17.3353   24.4623 C   0  0  0  0  0  0  0  0  0  0  0  0
   33.2354   16.7225   23.9126 F   0  0  0  0  0  0  0  0  0  0  0  0
   34.4406   18.5437   23.8660 F   0  0  0  0  0  0  0  0  0  0  0  0
   35.4057   16.6005   24.1569 F   0  0  0  0  0  0  0  0  0  0  0  0
   23.8464    2.9633   32.9389 F   0  0  0  0  0  0  0  0  0  0  0  0
   23.0283    2.3442   31.0234 F   0  0  0  0  0  0  0  0  0  0  0  0
   25.0144    3.2297   31.1275 F   0  0  0  0  0  0  0  0  0  0  0  0
   28.7517   11.4085   32.0224 H   0  0  0  0  0  0  0  0  0  0  0  0
   28.6338   10.0840   30.8618 H   0  0  0  0  0  0  0  0  0  0  0  0
   26.3713   11.8445   31.9403 H   0  0  0  0  0  0  0  0  0  0  0  0
   26.6574   10.1530   32.3314 H   0  0  0  0  0  0  0  0  0  0  0  0
   26.2257    9.4807   30.0021 H   0  0  0  0  0  0  0  0  0  0  0  0
   25.6758   12.4392   29.4325 H   0  0  0  0  0  0  0  0  0  0  0  0
   25.5639   11.1111   28.2781 H   0  0  0  0  0  0  0  0  0  0  0  0
   27.9681   10.6430   28.4624 H   0  0  0  0  0  0  0  0  0  0  0  0
   27.6874   12.3418   28.0524 H   0  0  0  0  0  0  0  0  0  0  0  0
   24.1136   11.0161   31.3797 H   0  0  0  0  0  0  0  0  0  0  0  0
   30.2211   11.2328   29.3372 H   0  0  0  0  0  0  0  0  0  0  0  0
   29.8105   12.8412   28.7500 H   0  0  0  0  0  0  0  0  0  0  0  0
   30.7590   12.1527   31.5616 H   0  0  0  0  0  0  0  0  0  0  0  0
   30.1768   13.7575   31.1094 H   0  0  0  0  0  0  0  0  0  0  0  0
   32.7220   13.3034   31.0811 H   0  0  0  0  0  0  0  0  0  0  0  0
   32.4491   12.3104   29.6570 H   0  0  0  0  0  0  0  0  0  0  0  0
   31.3157   14.4292   28.6058 H   0  0  0  0  0  0  0  0  0  0  0  0
   31.8575   15.2972   30.0253 H   0  0  0  0  0  0  0  0  0  0  0  0
   36.6801   11.6096   27.7551 H   0  0  0  0  0  0  0  0  0  0  0  0
   35.4791   10.6344   25.8173 H   0  0  0  0  0  0  0  0  0  0  0  0
   33.2744   11.5177   25.1205 H   0  0  0  0  0  0  0  0  0  0  0  0
   32.2294   13.4155   26.3443 H   0  0  0  0  0  0  0  0  0  0  0  0
   34.1305   16.4628   30.9007 H   0  0  0  0  0  0  0  0  0  0  0  0
   36.2197   16.2385   32.2364 H   0  0  0  0  0  0  0  0  0  0  0  0
   37.8901   14.4967   31.6798 H   0  0  0  0  0  0  0  0  0  0  0  0
   37.5063   12.9345   29.7905 H   0  0  0  0  0  0  0  0  0  0  0  0
   34.7860   15.5194   26.5120 H   0  0  0  0  0  0  0  0  0  0  0  0
   33.2821   18.0964   26.2005 H   0  0  0  0  0  0  0  0  0  0  0  0
   35.0396   18.0070   26.3834 H   0  0  0  0  0  0  0  0  0  0  0  0
   19.5314    7.9711   31.5858 H   0  0  0  0  0  0  0  0  0  0  0  0
   18.4524   10.1734   31.2976 H   0  0  0  0  0  0  0  0  0  0  0  0
   19.7492   12.1000   30.4209 H   0  0  0  0  0  0  0  0  0  0  0  0
   22.1354   11.8095   29.8093 H   0  0  0  0  0  0  0  0  0  0  0  0
   21.5450    6.5687   29.0862 H   0  0  0  0  0  0  0  0  0  0  0  0
   22.4853    4.3237   29.4169 H   0  0  0  0  0  0  0  0  0  0  0  0
   23.7083    5.4240   33.4131 H   0  0  0  0  0  0  0  0  0  0  0  0
   22.7642    7.6731   33.0750 H   0  0  0  0  0  0  0  0  0  0  0  0
  1  8  1  0
  8  9  1  0
  9 10  1  0
 10 11  1  0
 11 12  1  0
 12 13  1  0
 12 14  1  0
 14 15  2  0
 15 16  1  0
 16 17  1  0
 17 12  1  0
 16 18  2  0
 18 19  1  0
 19 20  2  0
 20 21  1  0
 21 17  2  0
 14 22  1  0
 22 23  2  0
 23 24  1  0
 24 25  2  0
 25 15  1  0
 13 26  2  0
 13 27  1  0
 27 28  1  0
  7 29  1  0
 29 30  1  0
 29 31  2  0
 30 32  1  0
 32 33  2  0
 33 34  1  0
 34 35  2  0
 35 36  1  0
 36 30  2  0
 32 37  1  0
 37 38  2  0
 38 39  1  0
 39 40  2  0
 40 41  1  0
 41 42  2  0
 42 37  1  0
 40 43  1  0
 28 44  1  0
  1  2  1  0
  2  3  1  0
 44 45  1  0
  3  4  1  0
 44 46  1  0
  4  5  1  0
 44 47  1  0
  5  6  1  0
 43 48  1  0
  6  1  1  0
 43 49  1  0
  4  7  1  0
 43 50  1  0
  2 51  1  0
  2 52  1  0
  3 53  1  0
  3 54  1  0
  4 55  1  0
  5 56  1  0
  5 57  1  0
  6 58  1  0
  6 59  1  0
  7 60  1  0
  8 61  1  0
  8 62  1  0
  9 63  1  0
  9 64  1  0
 10 65  1  0
 10 66  1  0
 11 67  1  0
 11 68  1  0
 18 69  1  0
 19 70  1  0
 20 71  1  0
 21 72  1  0
 22 73  1  0
 23 74  1  0
 24 75  1  0
 25 76  1  0
 27 77  1  0
 28 78  1  0
 28 79  1  0
 33 80  1  0
 34 81  1  0
 35 82  1  0
 36 83  1  0
 38 84  1  0
 39 85  1  0
 41 86  1  0
 42 87  1  0
M  END
> <Uni-Dock RESULT> 
ENERGY=   -4.015  LOWER_BOUND=    4.991  UPPER_BOUND=    6.148
INTER + INTRA:          -4.015
INTER:                  -4.015
INTRA:                   0.000
UNBOUND:                 0.000

$$$$

     RDKit          3D

 87 92  0  0  0  0  0  0  0  0999 V2000
   29.0319    7.1638   29.5577 N   0  0  0  0  0  0  0  0  0  0  0  0
   30.4975    7.0510   29.4943 C   0  0  0  0  0  0  0  0  0  0  0  0
   31.0671    7.8549   28.3222 C   0  0  0  0  0  0  0  0  0  0  0  0
   30.6471    9.3214   28.4053 C   0  0  0  0  0  0  0  0  0  0  0  0
   29.1243    9.4234   28.5174 C   0  0  0  0  0  0  0  0  0  0  0  0
   28.6194    8.5756   29.6827 C   0  0  0  0  0  0  0  0  0  0  0  0
   31.1416   10.0776   27.2610 N   0  0  0  0  0  0  0  0  0  0  0  0
   28.4614    6.3933   30.6809 C   0  0  0  0  0  0  0  0  0  0  0  0
   28.6357    4.8705   30.5420 C   0  0  0  0  0  0  0  0  0  0  0  0
   27.8798    4.0968   31.6332 C   0  0  0  0  0  0  0  0  0  0  0  0
   26.3718    3.9812   31.3405 C   0  0  0  0  0  0  0  0  0  0  0  0
   25.5071    3.3957   32.4906 C   0  0  0  0  0  0  0  0  0  0  0  0
   24.0298    3.2922   32.0125 C   0  0  0  0  0  0  0  0  0  0  0  0
   25.9790    2.0056   32.9458 C   0  0  0  0  0  0  0  0  0  0  0  0
   26.3451    2.0327   34.3096 C   0  0  0  0  0  0  0  0  0  0  0  0
   26.1550    3.3726   34.8257 C   0  0  0  0  0  0  0  0  0  0  0  0
   25.6670    4.2041   33.7908 C   0  0  0  0  0  0  0  0  0  0  0  0
   26.3648    3.8842   36.0953 C   0  0  0  0  0  0  0  0  0  0  0  0
   26.0863    5.2354   36.3250 C   0  0  0  0  0  0  0  0  0  0  0  0
   25.6081    6.0588   35.2937 C   0  0  0  0  0  0  0  0  0  0  0  0
   25.3938    5.5473   34.0127 C   0  0  0  0  0  0  0  0  0  0  0  0
   26.0525    0.8356   32.2033 C   0  0  0  0  0  0  0  0  0  0  0  0
   26.5084   -0.3205   32.8402 C   0  0  0  0  0  0  0  0  0  0  0  0
   26.8785   -0.2967   34.1938 C   0  0  0  0  0  0  0  0  0  0  0  0
   26.7970    0.8828   34.9374 C   0  0  0  0  0  0  0  0  0  0  0  0
   23.7358    2.9922   30.8510 O   0  0  0  0  0  0  0  0  0  0  0  0
   23.0468    3.4643   32.9733 N   0  0  0  0  0  0  0  0  0  0  0  0
   21.6280    3.2525   32.6726 C   0  0  0  0  0  0  0  0  0  0  0  0
   31.3082   11.4471   27.3169 C   0  0  0  0  0  0  0  0  0  0  0  0
   31.6718   12.0798   26.0281 C   0  0  0  0  0  0  0  0  0  0  0  0
   31.1399   12.1276   28.3191 O   0  0  0  0  0  0  0  0  0  0  0  0
   32.8899   12.7668   25.8706 C   0  0  0  0  0  0  0  0  0  0  0  0
   33.1497   13.3649   24.6221 C   0  0  0  0  0  0  0  0  0  0  0  0
   32.2263   13.2841   23.5745 C   0  0  0  0  0  0  0  0  0  0  0  0
   31.0245   12.6016   23.7508 C   0  0  0  0  0  0  0  0  0  0  0  0
   30.7442   11.9971   24.9767 C   0  0  0  0  0  0  0  0  0  0  0  0
   33.8961   12.8707   26.9342 C   0  0  0  0  0  0  0  0  0  0  0  0
   33.8901   13.9648   27.8121 C   0  0  0  0  0  0  0  0  0  0  0  0
   34.8631   14.0894   28.8062 C   0  0  0  0  0  0  0  0  0  0  0  0
   35.8728   13.1254   28.9417 C   0  0  0  0  0  0  0  0  0  0  0  0
   35.8764   12.0228   28.0708 C   0  0  0  0  0  0  0  0  0  0  0  0
   34.8979   11.8981   27.0787 C   0  0  0  0  0  0  0  0  0  0  0  0
   36.9100   13.2587   30.0287 C   0  0  0  0  0  0  0  0  0  0  0  0
   20.6693    4.1309   33.4826 C   0  0  0  0  0  0  0  0  0  0  0  0
   20.8602    5.4463   33.2315 F   0  0  0  0  0  0  0  0  0  0  0  0
   19.3792    3.8412   33.1916 F   0  0  0  0  0  0  0  0  0  0  0  0
   20.8489    3.9335   34.8112 F   0  0  0  0  0  0  0  0  0  0  0  0
   38.0609   12.5852   29.7510 F   0  0  0  0  0  0  0  0  0  0  0  0
   37.2839   14.5507   30.2554 F   0  0  0  0  0  0  0  0  0  0  0  0
   36.4790   12.7763   31.2266 F   0  0  0  0  0  0  0  0  0  0  0  0
   30.7947    6.0079   29.3455 H   0  0  0  0  0  0  0  0  0  0  0  0
   30.9555    7.3902   30.4311 H   0  0  0  0  0  0  0  0  0  0  0  0
   30.7193    7.4166   27.3773 H   0  0  0  0  0  0  0  0  0  0  0  0
   32.1618    7.7781   28.3180 H   0  0  0  0  0  0  0  0  0  0  0  0
   31.0901    9.7616   29.3084 H   0  0  0  0  0  0  0  0  0  0  0  0
   28.6522    9.0936   27.5793 H   0  0  0  0  0  0  0  0  0  0  0  0
   28.8190   10.4699   28.6688 H   0  0  0  0  0  0  0  0  0  0  0  0
   28.9848    8.9995   30.6293 H   0  0  0  0  0  0  0  0  0  0  0  0
   27.5235    8.6424   29.6967 H   0  0  0  0  0  0  0  0  0  0  0  0
   31.2023    9.6150   26.3619 H   0  0  0  0  0  0  0  0  0  0  0  0
   28.8894    6.7271   31.6373 H   0  0  0  0  0  0  0  0  0  0  0  0
   27.3865    6.6027   30.7284 H   0  0  0  0  0  0  0  0  0  0  0  0
   29.6990    4.6220   30.6391 H   0  0  0  0  0  0  0  0  0  0  0  0
   28.3127    4.5312   29.5487 H   0  0  0  0  0  0  0  0  0  0  0  0
   28.3047    3.0887   31.6944 H   0  0  0  0  0  0  0  0  0  0  0  0
   28.0662    4.5765   32.5989 H   0  0  0  0  0  0  0  0  0  0  0  0
   25.9679    4.9669   31.0746 H   0  0  0  0  0  0  0  0  0  0  0  0
   26.2595    3.3633   30.4379 H   0  0  0  0  0  0  0  0  0  0  0  0
   26.7362    3.2599   36.9009 H   0  0  0  0  0  0  0  0  0  0  0  0
   26.2451    5.6546   37.3164 H   0  0  0  0  0  0  0  0  0  0  0  0
   25.4052    7.1078   35.4973 H   0  0  0  0  0  0  0  0  0  0  0  0
   25.0213    6.1853   33.2184 H   0  0  0  0  0  0  0  0  0  0  0  0
   25.7507    0.8110   31.1580 H   0  0  0  0  0  0  0  0  0  0  0  0
   26.5745   -1.2523   32.2820 H   0  0  0  0  0  0  0  0  0  0  0  0
   27.2296   -1.2103   34.6701 H   0  0  0  0  0  0  0  0  0  0  0  0
   27.0907    0.8910   35.9825 H   0  0  0  0  0  0  0  0  0  0  0  0
   23.3200    3.4353   33.9483 H   0  0  0  0  0  0  0  0  0  0  0  0
   21.4496    3.4155   31.6028 H   0  0  0  0  0  0  0  0  0  0  0  0
   21.4235    2.1950   32.8834 H   0  0  0  0  0  0  0  0  0  0  0  0
   34.0824   13.9062   24.4640 H   0  0  0  0  0  0  0  0  0  0  0  0
   32.4435   13.7671   22.6222 H   0  0  0  0  0  0  0  0  0  0  0  0
   30.3040   12.5483   22.9368 H   0  0  0  0  0  0  0  0  0  0  0  0
   29.7967   11.4824   25.1182 H   0  0  0  0  0  0  0  0  0  0  0  0
   33.1142   14.7251   27.7291 H   0  0  0  0  0  0  0  0  0  0  0  0
   34.8299   14.9495   29.4725 H   0  0  0  0  0  0  0  0  0  0  0  0
   36.6472   11.2547   28.1604 H   0  0  0  0  0  0  0  0  0  0  0  0
   34.9240   11.0352   26.4151 H   0  0  0  0  0  0  0  0  0  0  0  0
  1  8  1  0
  8  9  1  0
  9 10  1  0
 10 11  1  0
 11 12  1  0
 12 13  1  0
 12 14  1  0
 14 15  2  0
 15 16  1  0
 16 17  1  0
 17 12  1  0
 16 18  2  0
 18 19  1  0
 19 20  2  0
 20 21  1  0
 21 17  2  0
 14 22  1  0
 22 23  2  0
 23 24  1  0
 24 25  2  0
 25 15  1  0
 13 26  2  0
 13 27  1  0
 27 28  1  0
  7 29  1  0
 29 30  1  0
 29 31  2  0
 30 32  1  0
 32 33  2  0
 33 34  1  0
 34 35  2  0
 35 36  1  0
 36 30  2  0
 32 37  1  0
 37 38  2  0
 38 39  1  0
 39 40  2  0
 40 41  1  0
 41 42  2  0
 42 37  1  0
 40 43  1  0
 28 44  1  0
  1  2  1  0
  2  3  1  0
 44 45  1  0
  3  4  1  0
 44 46  1  0
  4  5  1  0
 44 47  1  0
  5  6  1  0
 43 48  1  0
  6  1  1  0
 43 49  1  0
  4  7  1  0
 43 50  1  0
  2 51  1  0
  2 52  1  0
  3 53  1  0
  3 54  1  0
  4 55  1  0
  5 56  1  0
  5 57  1  0
  6 58  1  0
  6 59  1  0
  7 60  1  0
  8 61  1  0
  8 62  1  0
  9 63  1  0
  9 64  1  0
 10 65  1  0
 10 66  1  0
 11 67  1  0
 11 68  1  0
 18 69  1  0
 19 70  1  0
 20 71  1  0
 21 72  1  0
 22 73  1  0
 23 74  1  0
 24 75  1  0
 25 76  1  0
 27 77  1  0
 28 78  1  0
 28 79  1  0
 33 80  1  0
 34 81  1  0
 35 82  1  0
 36 83  1  0
 38 84  1  0
 39 85  1  0
 41 86  1  0
 42 87  1  0
M  END
> <Uni-Dock RESULT> 
ENERGY=   -3.812  LOWER_BOUND=    5.516  UPPER_BOUND=   14.496
INTER + INTRA:          -3.812
INTER:                  -3.812
INTRA:                   0.000
UNBOUND:                 0.000

$$$$

     RDKit          3D

 87 92  0  0  0  0  0  0  0  0999 V2000
   29.7466    9.9561   28.4041 N   0  0  0  0  0  0  0  0  0  0  0  0
   30.7710    8.9650   28.7688 C   0  0  0  0  0  0  0  0  0  0  0  0
   30.5654    8.4521   30.1968 C   0  0  0  0  0  0  0  0  0  0  0  0
   29.1663    7.8648   30.3742 C   0  0  0  0  0  0  0  0  0  0  0  0
   28.1117    8.8885   29.9480 C   0  0  0  0  0  0  0  0  0  0  0  0
   28.3926    9.3819   28.5306 C   0  0  0  0  0  0  0  0  0  0  0  0
   28.9483    7.4263   31.7476 N   0  0  0  0  0  0  0  0  0  0  0  0
   29.9280   10.4658   27.0301 C   0  0  0  0  0  0  0  0  0  0  0  0
   31.2160   11.2857   26.8362 C   0  0  0  0  0  0  0  0  0  0  0  0
   31.2829   11.9442   25.4496 C   0  0  0  0  0  0  0  0  0  0  0  0
   30.4220   13.2183   25.3569 C   0  0  0  0  0  0  0  0  0  0  0  0
   30.2723   13.8261   23.9351 C   0  0  0  0  0  0  0  0  0  0  0  0
   29.4295   15.1310   24.0273 C   0  0  0  0  0  0  0  0  0  0  0  0
   31.6232   14.1541   23.2795 C   0  0  0  0  0  0  0  0  0  0  0  0
   31.7787   13.4230   22.0811 C   0  0  0  0  0  0  0  0  0  0  0  0
   30.6055   12.5999   21.8715 C   0  0  0  0  0  0  0  0  0  0  0  0
   29.6982   12.8043   22.9371 C   0  0  0  0  0  0  0  0  0  0  0  0
   30.2928   11.7273   20.8428 C   0  0  0  0  0  0  0  0  0  0  0  0
   29.0664   11.0562   20.8862 C   0  0  0  0  0  0  0  0  0  0  0  0
   28.1715   11.2570   21.9487 C   0  0  0  0  0  0  0  0  0  0  0  0
   28.4818   12.1365   22.9873 C   0  0  0  0  0  0  0  0  0  0  0  0
   32.6008   15.0363   23.7172 C   0  0  0  0  0  0  0  0  0  0  0  0
   33.7539   15.1780   22.9424 C   0  0  0  0  0  0  0  0  0  0  0  0
   33.9150   14.4492   21.7539 C   0  0  0  0  0  0  0  0  0  0  0  0
   32.9248   13.5669   21.3155 C   0  0  0  0  0  0  0  0  0  0  0  0
   29.5213   15.9048   24.9856 O   0  0  0  0  0  0  0  0  0  0  0  0
   28.6298   15.4386   22.9388 N   0  0  0  0  0  0  0  0  0  0  0  0
   27.9001   16.7067   22.8508 C   0  0  0  0  0  0  0  0  0  0  0  0
   27.9992    6.4736   32.0602 C   0  0  0  0  0  0  0  0  0  0  0  0
   27.7987    6.2519   33.5109 C   0  0  0  0  0  0  0  0  0  0  0  0
   27.3265    5.8665   31.2387 O   0  0  0  0  0  0  0  0  0  0  0  0
   28.0541    4.9996   34.0997 C   0  0  0  0  0  0  0  0  0  0  0  0
   27.8123    4.8617   35.4805 C   0  0  0  0  0  0  0  0  0  0  0  0
   27.3294    5.9316   36.2412 C   0  0  0  0  0  0  0  0  0  0  0  0
   27.0800    7.1631   35.6393 C   0  0  0  0  0  0  0  0  0  0  0  0
   27.3146    7.3272   34.2738 C   0  0  0  0  0  0  0  0  0  0  0  0
   28.5715    3.8498   33.3482 C   0  0  0  0  0  0  0  0  0  0  0  0
   27.6896    2.9187   32.7798 C   0  0  0  0  0  0  0  0  0  0  0  0
   28.1729    1.8039   32.0913 C   0  0  0  0  0  0  0  0  0  0  0  0
   29.5525    1.5879   31.9612 C   0  0  0  0  0  0  0  0  0  0  0  0
   30.4392    2.5235   32.5204 C   0  0  0  0  0  0  0  0  0  0  0  0
   29.9525    3.6418   33.2058 C   0  0  0  0  0  0  0  0  0  0  0  0
   30.0662    0.3903   31.2016 C   0  0  0  0  0  0  0  0  0  0  0  0
   26.5791   16.6269   22.0792 C   0  0  0  0  0  0  0  0  0  0  0  0
   25.6999   15.7887   22.6743 F   0  0  0  0  0  0  0  0  0  0  0  0
   25.9911   17.8433   21.9926 F   0  0  0  0  0  0  0  0  0  0  0  0
   26.7898   16.1776   20.8181 F   0  0  0  0  0  0  0  0  0  0  0  0
   31.3299    0.0331   31.5632 F   0  0  0  0  0  0  0  0  0  0  0  0
   29.3017   -0.7250   31.3814 F   0  0  0  0  0  0  0  0  0  0  0  0
   30.1119    0.6021   29.8575 F   0  0  0  0  0  0  0  0  0  0  0  0
   31.7689    9.4132   28.7270 H   0  0  0  0  0  0  0  0  0  0  0  0
   30.7630    8.1207   28.0691 H   0  0  0  0  0  0  0  0  0  0  0  0
   30.7201    9.2767   30.9053 H   0  0  0  0  0  0  0  0  0  0  0  0
   31.3230    7.6933   30.4302 H   0  0  0  0  0  0  0  0  0  0  0  0
   29.0725    6.9825   29.7272 H   0  0  0  0  0  0  0  0  0  0  0  0
   28.1034    9.7380   30.6479 H   0  0  0  0  0  0  0  0  0  0  0  0
   27.1059    8.4433   29.9865 H   0  0  0  0  0  0  0  0  0  0  0  0
   28.2600    8.5524   27.8210 H   0  0  0  0  0  0  0  0  0  0  0  0
   27.6415   10.1444   28.2852 H   0  0  0  0  0  0  0  0  0  0  0  0
   29.3804    7.9497   32.4995 H   0  0  0  0  0  0  0  0  0  0  0  0
   29.9043    9.6404   26.3038 H   0  0  0  0  0  0  0  0  0  0  0  0
   29.0792   11.1173   26.7919 H   0  0  0  0  0  0  0  0  0  0  0  0
   32.0813   10.6187   26.9258 H   0  0  0  0  0  0  0  0  0  0  0  0
   31.3125   12.0492   27.6198 H   0  0  0  0  0  0  0  0  0  0  0  0
   32.3266   12.2091   25.2468 H   0  0  0  0  0  0  0  0  0  0  0  0
   30.9924   11.2071   24.6948 H   0  0  0  0  0  0  0  0  0  0  0  0
   29.4175   13.0182   25.7524 H   0  0  0  0  0  0  0  0  0  0  0  0
   30.8633   13.9623   26.0358 H   0  0  0  0  0  0  0  0  0  0  0  0
   30.9759   11.5608   20.0167 H   0  0  0  0  0  0  0  0  0  0  0  0
   28.8038   10.3668   20.0864 H   0  0  0  0  0  0  0  0  0  0  0  0
   27.2269   10.7180   21.9616 H   0  0  0  0  0  0  0  0  0  0  0  0
   27.7869   12.2920   23.8056 H   0  0  0  0  0  0  0  0  0  0  0  0
   32.4711   15.6145   24.6299 H   0  0  0  0  0  0  0  0  0  0  0  0
   34.5361   15.8642   23.2613 H   0  0  0  0  0  0  0  0  0  0  0  0
   34.8216   14.5768   21.1649 H   0  0  0  0  0  0  0  0  0  0  0  0
   33.0621   13.0044   20.3973 H   0  0  0  0  0  0  0  0  0  0  0  0
   28.7855   14.9361   22.0731 H   0  0  0  0  0  0  0  0  0  0  0  0
   27.7058   17.0909   23.8596 H   0  0  0  0  0  0  0  0  0  0  0  0
   28.5740   17.4153   22.3524 H   0  0  0  0  0  0  0  0  0  0  0  0
   27.9978    3.9060   35.9705 H   0  0  0  0  0  0  0  0  0  0  0  0
   27.1364    5.7965   37.3052 H   0  0  0  0  0  0  0  0  0  0  0  0
   26.6954    7.9911   36.2321 H   0  0  0  0  0  0  0  0  0  0  0  0
   27.1000    8.2836   33.8025 H   0  0  0  0  0  0  0  0  0  0  0  0
   26.6135    3.0662   32.8645 H   0  0  0  0  0  0  0  0  0  0  0  0
   27.4624    1.1006   31.6605 H   0  0  0  0  0  0  0  0  0  0  0  0
   31.5178    2.3822   32.4265 H   0  0  0  0  0  0  0  0  0  0  0  0
   30.6604    4.3510   33.6317 H   0  0  0  0  0  0  0  0  0  0  0  0
  1  8  1  0
  8  9  1  0
  9 10  1  0
 10 11  1  0
 11 12  1  0
 12 13  1  0
 12 14  1  0
 14 15  2  0
 15 16  1  0
 16 17  1  0
 17 12  1  0
 16 18  2  0
 18 19  1  0
 19 20  2  0
 20 21  1  0
 21 17  2  0
 14 22  1  0
 22 23  2  0
 23 24  1  0
 24 25  2  0
 25 15  1  0
 13 26  2  0
 13 27  1  0
 27 28  1  0
  7 29  1  0
 29 30  1  0
 29 31  2  0
 30 32  1  0
 32 33  2  0
 33 34  1  0
 34 35  2  0
 35 36  1  0
 36 30  2  0
 32 37  1  0
 37 38  2  0
 38 39  1  0
 39 40  2  0
 40 41  1  0
 41 42  2  0
 42 37  1  0
 40 43  1  0
 28 44  1  0
  1  2  1  0
  2  3  1  0
 44 45  1  0
  3  4  1  0
 44 46  1  0
  4  5  1  0
 44 47  1  0
  5  6  1  0
 43 48  1  0
  6  1  1  0
 43 49  1  0
  4  7  1  0
 43 50  1  0
  2 51  1  0
  2 52  1  0
  3 53  1  0
  3 54  1  0
  4 55  1  0
  5 56  1  0
  5 57  1  0
  6 58  1  0
  6 59  1  0
  7 60  1  0
  8 61  1  0
  8 62  1  0
  9 63  1  0
  9 64  1  0
 10 65  1  0
 10 66  1  0
 11 67  1  0
 11 68  1  0
 18 69  1  0
 19 70  1  0
 20 71  1  0
 21 72  1  0
 22 73  1  0
 23 74  1  0
 24 75  1  0
 25 76  1  0
 27 77  1  0
 28 78  1  0
 28 79  1  0
 33 80  1  0
 34 81  1  0
 35 82  1  0
 36 83  1  0
 38 84  1  0
 39 85  1  0
 41 86  1  0
 42 87  1  0
M  END
> <Uni-Dock RESULT> 
ENERGY=   -3.678  LOWER_BOUND=    3.221  UPPER_BOUND=    3.812
INTER + INTRA:          -3.678
INTER:                  -3.678
INTRA:                   0.000
UNBOUND:                 0.000

$$$$

     RDKit          3D

 87 92  0  0  0  0  0  0  0  0999 V2000
   32.0606    8.3846   29.0645 N   0  0  0  0  0  0  0  0  0  0  0  0
   30.8784    8.0678   28.2480 C   0  0  0  0  0  0  0  0  0  0  0  0
   30.2319    9.3382   27.6887 C   0  0  0  0  0  0  0  0  0  0  0  0
   31.2367   10.1561   26.8793 C   0  0  0  0  0  0  0  0  0  0  0  0
   32.4811   10.4395   27.7238 C   0  0  0  0  0  0  0  0  0  0  0  0
   33.0562    9.1373   28.2761 C   0  0  0  0  0  0  0  0  0  0  0  0
   30.6392   11.3937   26.3921 N   0  0  0  0  0  0  0  0  0  0  0  0
   32.6985    7.1724   29.6160 C   0  0  0  0  0  0  0  0  0  0  0  0
   31.8262    6.4206   30.6370 C   0  0  0  0  0  0  0  0  0  0  0  0
   32.5864    5.2715   31.3169 C   0  0  0  0  0  0  0  0  0  0  0  0
   33.5252    5.7624   32.4353 C   0  0  0  0  0  0  0  0  0  0  0  0
   34.4792    4.6905   33.0305 C   0  0  0  0  0  0  0  0  0  0  0  0
   35.3095    5.3323   34.1796 C   0  0  0  0  0  0  0  0  0  0  0  0
   33.7327    3.4658   33.5828 C   0  0  0  0  0  0  0  0  0  0  0  0
   34.1374    2.2955   32.9035 C   0  0  0  0  0  0  0  0  0  0  0  0
   35.1254    2.6447   31.9037 C   0  0  0  0  0  0  0  0  0  0  0  0
   35.3531    4.0400   31.9430 C   0  0  0  0  0  0  0  0  0  0  0  0
   35.8156    1.8472   31.0063 C   0  0  0  0  0  0  0  0  0  0  0  0
   36.7350    2.4537   30.1442 C   0  0  0  0  0  0  0  0  0  0  0  0
   36.9534    3.8397   30.1820 C   0  0  0  0  0  0  0  0  0  0  0  0
   36.2610    4.6474   31.0857 C   0  0  0  0  0  0  0  0  0  0  0  0
   32.7965    3.4176   34.6060 C   0  0  0  0  0  0  0  0  0  0  0  0
   32.2545    2.1758   34.9441 C   0  0  0  0  0  0  0  0  0  0  0  0
   32.6497    1.0112   34.2678 C   0  0  0  0  0  0  0  0  0  0  0  0
   33.5967    1.0654   33.2425 C   0  0  0  0  0  0  0  0  0  0  0  0
   34.8290    6.1746   34.9446 O   0  0  0  0  0  0  0  0  0  0  0  0
   36.5946    4.8510   34.3683 N   0  0  0  0  0  0  0  0  0  0  0  0
   37.4199    5.2774   35.5020 C   0  0  0  0  0  0  0  0  0  0  0  0
   31.1470   12.0581   25.2935 C   0  0  0  0  0  0  0  0  0  0  0  0
   30.5225   13.3733   25.0219 C   0  0  0  0  0  0  0  0  0  0  0  0
   32.0652   11.6490   24.5966 O   0  0  0  0  0  0  0  0  0  0  0  0
   29.8339   13.6197   23.8197 C   0  0  0  0  0  0  0  0  0  0  0  0
   29.2918   14.9051   23.6250 C   0  0  0  0  0  0  0  0  0  0  0  0
   29.4370   15.9059   24.5915 C   0  0  0  0  0  0  0  0  0  0  0  0
   30.1246   15.6433   25.7744 C   0  0  0  0  0  0  0  0  0  0  0  0
   30.6682   14.3771   25.9935 C   0  0  0  0  0  0  0  0  0  0  0  0
   29.6445   12.6011   22.7799 C   0  0  0  0  0  0  0  0  0  0  0  0
   30.5627   12.4839   21.7259 C   0  0  0  0  0  0  0  0  0  0  0  0
   30.3733   11.5400   20.7141 C   0  0  0  0  0  0  0  0  0  0  0  0
   29.2547   10.6942   20.7271 C   0  0  0  0  0  0  0  0  0  0  0  0
   28.3379   10.8014   21.7865 C   0  0  0  0  0  0  0  0  0  0  0  0
   28.5323   11.7449   22.8012 C   0  0  0  0  0  0  0  0  0  0  0  0
   29.0664    9.6660   19.6397 C   0  0  0  0  0  0  0  0  0  0  0  0
   38.9254    5.2977   35.2193 C   0  0  0  0  0  0  0  0  0  0  0  0
   39.2407    6.1771   34.2411 F   0  0  0  0  0  0  0  0  0  0  0  0
   39.6242    5.6469   36.3250 F   0  0  0  0  0  0  0  0  0  0  0  0
   39.3537    4.0730   34.8279 F   0  0  0  0  0  0  0  0  0  0  0  0
   27.7678    9.2843   19.4877 F   0  0  0  0  0  0  0  0  0  0  0  0
   29.4678   10.1060   18.4126 F   0  0  0  0  0  0  0  0  0  0  0  0
   29.7636    8.5205   19.8748 F   0  0  0  0  0  0  0  0  0  0  0  0
   30.1209    7.5593   28.8531 H   0  0  0  0  0  0  0  0  0  0  0  0
   31.1429    7.3951   27.4235 H   0  0  0  0  0  0  0  0  0  0  0  0
   29.8368    9.9405   28.5175 H   0  0  0  0  0  0  0  0  0  0  0  0
   29.3732    9.0705   27.0599 H   0  0  0  0  0  0  0  0  0  0  0  0
   31.5407    9.5688   26.0027 H   0  0  0  0  0  0  0  0  0  0  0  0
   32.2307   11.1214   28.5508 H   0  0  0  0  0  0  0  0  0  0  0  0
   33.2473   10.9495   27.1205 H   0  0  0  0  0  0  0  0  0  0  0  0
   33.4326    8.5220   27.4460 H   0  0  0  0  0  0  0  0  0  0  0  0
   33.9161    9.3918   28.9097 H   0  0  0  0  0  0  0  0  0  0  0  0
   29.9488   11.8600   26.9682 H   0  0  0  0  0  0  0  0  0  0  0  0
   32.9929    6.4870   28.8080 H   0  0  0  0  0  0  0  0  0  0  0  0
   33.6222    7.4729   30.1241 H   0  0  0  0  0  0  0  0  0  0  0  0
   30.9648    5.9838   30.1183 H   0  0  0  0  0  0  0  0  0  0  0  0
   31.4324    7.1110   31.3950 H   0  0  0  0  0  0  0  0  0  0  0  0
   31.8512    4.5845   31.7507 H   0  0  0  0  0  0  0  0  0  0  0  0
   33.1313    4.7085   30.5530 H   0  0  0  0  0  0  0  0  0  0  0  0
   34.1343    6.5992   32.0690 H   0  0  0  0  0  0  0  0  0  0  0  0
   32.8943    6.1834   33.2315 H   0  0  0  0  0  0  0  0  0  0  0  0
   35.6550    0.7752   30.9646 H   0  0  0  0  0  0  0  0  0  0  0  0
   37.2864    1.8428   29.4325 H   0  0  0  0  0  0  0  0  0  0  0  0
   37.6695    4.2872   29.4965 H   0  0  0  0  0  0  0  0  0  0  0  0
   36.4341    5.7179   31.1147 H   0  0  0  0  0  0  0  0  0  0  0  0
   32.5006    4.3168   35.1426 H   0  0  0  0  0  0  0  0  0  0  0  0
   31.5195    2.1088   35.7437 H   0  0  0  0  0  0  0  0  0  0  0  0
   32.2151    0.0537   34.5492 H   0  0  0  0  0  0  0  0  0  0  0  0
   33.8913    0.1591   32.7227 H   0  0  0  0  0  0  0  0  0  0  0  0
   36.8539    3.9857   33.9099 H   0  0  0  0  0  0  0  0  0  0  0  0
   37.1022    6.2728   35.8354 H   0  0  0  0  0  0  0  0  0  0  0  0
   37.2092    4.5739   36.3176 H   0  0  0  0  0  0  0  0  0  0  0  0
   28.7528   15.1326   22.7054 H   0  0  0  0  0  0  0  0  0  0  0  0
   29.0211   16.8970   24.4120 H   0  0  0  0  0  0  0  0  0  0  0  0
   30.2439   16.4268   26.5204 H   0  0  0  0  0  0  0  0  0  0  0  0
   31.2219   14.1806   26.9087 H   0  0  0  0  0  0  0  0  0  0  0  0
   31.4413   13.1274   21.6953 H   0  0  0  0  0  0  0  0  0  0  0  0
   31.1049   11.4732   19.9108 H   0  0  0  0  0  0  0  0  0  0  0  0
   27.4629   10.1495   21.8238 H   0  0  0  0  0  0  0  0  0  0  0  0
   27.8062   11.8095   23.6100 H   0  0  0  0  0  0  0  0  0  0  0  0
  1  8  1  0
  8  9  1  0
  9 10  1  0
 10 11  1  0
 11 12  1  0
 12 13  1  0
 12 14  1  0
 14 15  2  0
 15 16  1  0
 16 17  1  0
 17 12  1  0
 16 18  2  0
 18 19  1  0
 19 20  2  0
 20 21  1  0
 21 17  2  0
 14 22  1  0
 22 23  2  0
 23 24  1  0
 24 25  2  0
 25 15  1  0
 13 26  2  0
 13 27  1  0
 27 28  1  0
  7 29  1  0
 29 30  1  0
 29 31  2  0
 30 32  1  0
 32 33  2  0
 33 34  1  0
 34 35  2  0
 35 36  1  0
 36 30  2  0
 32 37  1  0
 37 38  2  0
 38 39  1  0
 39 40  2  0
 40 41  1  0
 41 42  2  0
 42 37  1  0
 40 43  1  0
 28 44  1  0
  1  2  1  0
  2  3  1  0
 44 45  1  0
  3  4  1  0
 44 46  1  0
  4  5  1  0
 44 47  1  0
  5  6  1  0
 43 48  1  0
  6  1  1  0
 43 49  1  0
  4  7  1  0
 43 50  1  0
  2 51  1  0
  2 52  1  0
  3 53  1  0
  3 54  1  0
  4 55  1  0
  5 56  1  0
  5 57  1  0
  6 58  1  0
  6 59  1  0
  7 60  1  0
  8 61  1  0
  8 62  1  0
  9 63  1  0
  9 64  1  0
 10 65  1  0
 10 66  1  0
 11 67  1  0
 11 68  1  0
 18 69  1  0
 19 70  1  0
 20 71  1  0
 21 72  1  0
 22 73  1  0
 23 74  1  0
 24 75  1  0
 25 76  1  0
 27 77  1  0
 28 78  1  0
 28 79  1  0
 33 80  1  0
 34 81  1  0
 35 82  1  0
 36 83  1  0
 38 84  1  0
 39 85  1  0
 41 86  1  0
 42 87  1  0
M  END
> <Uni-Dock RESULT> 
ENERGY=   -3.660  LOWER_BOUND=    7.414  UPPER_BOUND=   14.693
INTER + INTRA:          -3.660
INTER:                  -3.660
INTRA:                   0.000
UNBOUND:                 0.000

$$$$

     RDKit          3D

 87 92  0  0  0  0  0  0  0  0999 V2000
   28.1766   11.9024   26.4578 N   0  0  0  0  0  0  0  0  0  0  0  0
   28.9921   11.0867   27.3711 C   0  0  0  0  0  0  0  0  0  0  0  0
   28.2915   10.8917   28.7186 C   0  0  0  0  0  0  0  0  0  0  0  0
   26.9092   10.2676   28.5345 C   0  0  0  0  0  0  0  0  0  0  0  0
   26.0874   11.0993   27.5472 C   0  0  0  0  0  0  0  0  0  0  0  0
   26.8546   11.2828   26.2398 C   0  0  0  0  0  0  0  0  0  0  0  0
   26.2172   10.1320   29.8107 N   0  0  0  0  0  0  0  0  0  0  0  0
   28.8357   12.1048   25.1519 C   0  0  0  0  0  0  0  0  0  0  0  0
   30.1235   12.9440   25.2290 C   0  0  0  0  0  0  0  0  0  0  0  0
   30.6821   13.2809   23.8379 C   0  0  0  0  0  0  0  0  0  0  0  0
   29.9293   14.4431   23.1628 C   0  0  0  0  0  0  0  0  0  0  0  0
   30.2966   14.7085   21.6769 C   0  0  0  0  0  0  0  0  0  0  0  0
   29.4965   15.9429   21.1692 C   0  0  0  0  0  0  0  0  0  0  0  0
   31.7967   14.9708   21.4691 C   0  0  0  0  0  0  0  0  0  0  0  0
   32.3496   14.0035   20.6011 C   0  0  0  0  0  0  0  0  0  0  0  0
   31.3104   13.0790   20.1970 C   0  0  0  0  0  0  0  0  0  0  0  0
   30.0911   13.4550   20.8074 C   0  0  0  0  0  0  0  0  0  0  0  0
   31.3629   11.9810   19.3549 C   0  0  0  0  0  0  0  0  0  0  0  0
   30.1879   11.2571   19.1277 C   0  0  0  0  0  0  0  0  0  0  0  0
   28.9813   11.6296   19.7404 C   0  0  0  0  0  0  0  0  0  0  0  0
   28.9232   12.7365   20.5889 C   0  0  0  0  0  0  0  0  0  0  0  0
   32.5739   15.9906   21.9998 C   0  0  0  0  0  0  0  0  0  0  0  0
   33.9274   16.0321   21.6586 C   0  0  0  0  0  0  0  0  0  0  0  0
   34.4820   15.0696   20.8009 C   0  0  0  0  0  0  0  0  0  0  0  0
   33.6933   14.0488   20.2653 C   0  0  0  0  0  0  0  0  0  0  0  0
   29.2601   16.9146   21.8940 O   0  0  0  0  0  0  0  0  0  0  0  0
   29.1334   15.9476   19.8324 N   0  0  0  0  0  0  0  0  0  0  0  0
   28.5017   17.1136   19.2081 C   0  0  0  0  0  0  0  0  0  0  0  0
   25.2031    9.2122   29.9890 C   0  0  0  0  0  0  0  0  0  0  0  0
   24.5041    9.3057   31.2915 C   0  0  0  0  0  0  0  0  0  0  0  0
   24.8504    8.3948   29.1503 O   0  0  0  0  0  0  0  0  0  0  0  0
   24.5166    8.2352   32.2047 C   0  0  0  0  0  0  0  0  0  0  0  0
   23.8048    8.3920   33.4100 C   0  0  0  0  0  0  0  0  0  0  0  0
   23.1040    9.5700   33.6888 C   0  0  0  0  0  0  0  0  0  0  0  0
   23.1014   10.6178   32.7706 C   0  0  0  0  0  0  0  0  0  0  0  0
   23.8016   10.4895   31.5707 C   0  0  0  0  0  0  0  0  0  0  0  0
   25.2452    6.9837   31.9646 C   0  0  0  0  0  0  0  0  0  0  0  0
   24.6026    5.8936   31.3591 C   0  0  0  0  0  0  0  0  0  0  0  0
   25.2776    4.6879   31.1566 C   0  0  0  0  0  0  0  0  0  0  0  0
   26.6118    4.5397   31.5628 C   0  0  0  0  0  0  0  0  0  0  0  0
   27.2622    5.6325   32.1604 C   0  0  0  0  0  0  0  0  0  0  0  0
   26.5851    6.8407   32.3581 C   0  0  0  0  0  0  0  0  0  0  0  0
   27.3389    3.2397   31.3250 C   0  0  0  0  0  0  0  0  0  0  0  0
   27.5330   16.7775   18.0699 C   0  0  0  0  0  0  0  0  0  0  0  0
   26.4874   16.0365   18.5029 F   0  0  0  0  0  0  0  0  0  0  0  0
   27.0326   17.9028   17.5076 F   0  0  0  0  0  0  0  0  0  0  0  0
   28.1641   16.0741   17.0986 F   0  0  0  0  0  0  0  0  0  0  0  0
   28.3902    3.0558   32.1713 F   0  0  0  0  0  0  0  0  0  0  0  0
   26.5415    2.1445   31.4835 F   0  0  0  0  0  0  0  0  0  0  0  0
   27.8554    3.1501   30.0686 F   0  0  0  0  0  0  0  0  0  0  0  0
   29.9489   11.5791   27.5728 H   0  0  0  0  0  0  0  0  0  0  0  0
   29.2155   10.1094   26.9269 H   0  0  0  0  0  0  0  0  0  0  0  0
   28.2022   11.8614   29.2260 H   0  0  0  0  0  0  0  0  0  0  0  0
   28.9069   10.2552   29.3671 H   0  0  0  0  0  0  0  0  0  0  0  0
   27.0332    9.2594   28.1174 H   0  0  0  0  0  0  0  0  0  0  0  0
   25.8489   12.0807   27.9849 H   0  0  0  0  0  0  0  0  0  0  0  0
   25.1246   10.6086   27.3391 H   0  0  0  0  0  0  0  0  0  0  0  0
   26.9650   10.3095   25.7402 H   0  0  0  0  0  0  0  0  0  0  0  0
   26.2495   11.9206   25.5819 H   0  0  0  0  0  0  0  0  0  0  0  0
   26.3676   10.8366   30.5227 H   0  0  0  0  0  0  0  0  0  0  0  0
   29.0539   11.1389   24.6736 H   0  0  0  0  0  0  0  0  0  0  0  0
   28.1348   12.6298   24.4926 H   0  0  0  0  0  0  0  0  0  0  0  0
   30.8916   12.3721   25.7624 H   0  0  0  0  0  0  0  0  0  0  0  0
   29.9524   13.8672   25.7988 H   0  0  0  0  0  0  0  0  0  0  0  0
   31.7351   13.5622   23.9511 H   0  0  0  0  0  0  0  0  0  0  0  0
   30.6620   12.3770   23.2214 H   0  0  0  0  0  0  0  0  0  0  0  0
   28.8468   14.2702   23.2235 H   0  0  0  0  0  0  0  0  0  0  0  0
   30.1175   15.3467   23.7605 H   0  0  0  0  0  0  0  0  0  0  0  0
   32.2890   11.6804   18.8767 H   0  0  0  0  0  0  0  0  0  0  0  0
   30.2104   10.3914   18.4689 H   0  0  0  0  0  0  0  0  0  0  0  0
   28.0831   11.0460   19.5517 H   0  0  0  0  0  0  0  0  0  0  0  0
   27.9885   13.0238   21.0587 H   0  0  0  0  0  0  0  0  0  0  0  0
   32.1426   16.7473   22.6522 H   0  0  0  0  0  0  0  0  0  0  0  0
   34.5597   16.8220   22.0593 H   0  0  0  0  0  0  0  0  0  0  0  0
   35.5393   15.1225   20.5473 H   0  0  0  0  0  0  0  0  0  0  0  0
   34.1339   13.3066   19.6069 H   0  0  0  0  0  0  0  0  0  0  0  0
   29.5738   15.2767   19.2143 H   0  0  0  0  0  0  0  0  0  0  0  0
   27.9732   17.6987   19.9705 H   0  0  0  0  0  0  0  0  0  0  0  0
   29.3190   17.7365   18.8225 H   0  0  0  0  0  0  0  0  0  0  0  0
   23.7913    7.5834   34.1407 H   0  0  0  0  0  0  0  0  0  0  0  0
   22.5488    9.6623   34.6220 H   0  0  0  0  0  0  0  0  0  0  0  0
   22.5475   11.5296   32.9864 H   0  0  0  0  0  0  0  0  0  0  0  0
   23.7813   11.3009   30.8468 H   0  0  0  0  0  0  0  0  0  0  0  0
   23.5674    5.9851   31.0319 H   0  0  0  0  0  0  0  0  0  0  0  0
   24.7512    3.8614   30.6827 H   0  0  0  0  0  0  0  0  0  0  0  0
   28.3030    5.5452   32.4786 H   0  0  0  0  0  0  0  0  0  0  0  0
   27.1108    7.6718   32.8254 H   0  0  0  0  0  0  0  0  0  0  0  0
  1  8  1  0
  8  9  1  0
  9 10  1  0
 10 11  1  0
 11 12  1  0
 12 13  1  0
 12 14  1  0
 14 15  2  0
 15 16  1  0
 16 17  1  0
 17 12  1  0
 16 18  2  0
 18 19  1  0
 19 20  2  0
 20 21  1  0
 21 17  2  0
 14 22  1  0
 22 23  2  0
 23 24  1  0
 24 25  2  0
 25 15  1  0
 13 26  2  0
 13 27  1  0
 27 28  1  0
  7 29  1  0
 29 30  1  0
 29 31  2  0
 30 32  1  0
 32 33  2  0
 33 34  1  0
 34 35  2  0
 35 36  1  0
 36 30  2  0
 32 37  1  0
 37 38  2  0
 38 39  1  0
 39 40  2  0
 40 41  1  0
 41 42  2  0
 42 37  1  0
 40 43  1  0
 28 44  1  0
  1  2  1  0
  2  3  1  0
 44 45  1  0
  3  4  1  0
 44 46  1  0
  4  5  1  0
 44 47  1  0
  5  6  1  0
 43 48  1  0
  6  1  1  0
 43 49  1  0
  4  7  1  0
 43 50  1  0
  2 51  1  0
  2 52  1  0
  3 53  1  0
  3 54  1  0
  4 55  1  0
  5 56  1  0
  5 57  1  0
  6 58  1  0
  6 59  1  0
  7 60  1  0
  8 61  1  0
  8 62  1  0
  9 63  1  0
  9 64  1  0
 10 65  1  0
 10 66  1  0
 11 67  1  0
 11 68  1  0
 18 69  1  0
 19 70  1  0
 20 71  1  0
 21 72  1  0
 22 73  1  0
 23 74  1  0
 24 75  1  0
 25 76  1  0
 27 77  1  0
 28 78  1  0
 28 79  1  0
 33 80  1  0
 34 81  1  0
 35 82  1  0
 36 83  1  0
 38 84  1  0
 39 85  1  0
 41 86  1  0
 42 87  1  0
M  END
> <Uni-Dock RESULT> 
ENERGY=   -3.610  LOWER_BOUND=    1.765  UPPER_BOUND=    2.153
INTER + INTRA:          -3.610
INTER:                  -3.610
INTRA:                   0.000
UNBOUND:                 0.000

$$$$

     RDKit          3D

 87 92  0  0  0  0  0  0  0  0999 V2000
   33.3695   12.2830   26.2378 N   0  0  0  0  0  0  0  0  0  0  0  0
   33.0639   13.1170   27.4107 C   0  0  0  0  0  0  0  0  0  0  0  0
   33.7630   12.5886   28.6664 C   0  0  0  0  0  0  0  0  0  0  0  0
   35.2733   12.4942   28.4566 C   0  0  0  0  0  0  0  0  0  0  0  0
   35.5767   11.6632   27.2079 C   0  0  0  0  0  0  0  0  0  0  0  0
   34.8255   12.2227   26.0020 C   0  0  0  0  0  0  0  0  0  0  0  0
   35.9355   11.9390   29.6310 N   0  0  0  0  0  0  0  0  0  0  0  0
   32.7027   12.7743   25.0152 C   0  0  0  0  0  0  0  0  0  0  0  0
   31.1678   12.6714   25.0602 C   0  0  0  0  0  0  0  0  0  0  0  0
   30.5217   13.0244   23.7117 C   0  0  0  0  0  0  0  0  0  0  0  0
   30.5995   11.8680   22.6969 C   0  0  0  0  0  0  0  0  0  0  0  0
   30.1553   12.2137   21.2489 C   0  0  0  0  0  0  0  0  0  0  0  0
   30.2375   10.9301   20.3729 C   0  0  0  0  0  0  0  0  0  0  0  0
   28.7243   12.7704   21.1790 C   0  0  0  0  0  0  0  0  0  0  0  0
   28.7297   14.0737   20.6348 C   0  0  0  0  0  0  0  0  0  0  0  0
   30.0928   14.4534   20.3256 C   0  0  0  0  0  0  0  0  0  0  0  0
   30.9608   13.3920   20.6727 C   0  0  0  0  0  0  0  0  0  0  0  0
   30.5970   15.6187   19.7728 C   0  0  0  0  0  0  0  0  0  0  0  0
   31.9774   15.7189   19.5709 C   0  0  0  0  0  0  0  0  0  0  0  0
   32.8362   14.6658   19.9225 C   0  0  0  0  0  0  0  0  0  0  0  0
   32.3324   13.4888   20.4788 C   0  0  0  0  0  0  0  0  0  0  0  0
   27.5406   12.1515   21.5550 C   0  0  0  0  0  0  0  0  0  0  0  0
   26.3473   12.8575   21.3886 C   0  0  0  0  0  0  0  0  0  0  0  0
   26.3486   14.1549   20.8534 C   0  0  0  0  0  0  0  0  0  0  0  0
   27.5429   14.7703   20.4715 C   0  0  0  0  0  0  0  0  0  0  0  0
   29.9561    9.8130   20.8182 O   0  0  0  0  0  0  0  0  0  0  0  0
   30.5559   11.1034   19.0359 N   0  0  0  0  0  0  0  0  0  0  0  0
   30.5266    9.9887   18.0847 C   0  0  0  0  0  0  0  0  0  0  0  0
   37.2720   12.1737   29.8858 C   0  0  0  0  0  0  0  0  0  0  0  0
   37.8262   11.4166   31.0317 C   0  0  0  0  0  0  0  0  0  0  0  0
   37.9882   12.9084   29.2200 O   0  0  0  0  0  0  0  0  0  0  0  0
   38.3440   12.0777   32.1610 C   0  0  0  0  0  0  0  0  0  0  0  0
   38.8783   11.2870   33.1971 C   0  0  0  0  0  0  0  0  0  0  0  0
   38.8990    9.8914   33.1055 C   0  0  0  0  0  0  0  0  0  0  0  0
   38.3840    9.2554   31.9779 C   0  0  0  0  0  0  0  0  0  0  0  0
   37.8456   10.0153   30.9390 C   0  0  0  0  0  0  0  0  0  0  0  0
   38.3355   13.5379   32.3104 C   0  0  0  0  0  0  0  0  0  0  0  0
   39.4379   14.2999   31.8956 C   0  0  0  0  0  0  0  0  0  0  0  0
   39.4528   15.6862   32.0638 C   0  0  0  0  0  0  0  0  0  0  0  0
   38.3674   16.3448   32.6597 C   0  0  0  0  0  0  0  0  0  0  0  0
   37.2570   15.5864   33.0673 C   0  0  0  0  0  0  0  0  0  0  0  0
   37.2427   14.1983   32.8936 C   0  0  0  0  0  0  0  0  0  0  0  0
   38.3844   17.8443   32.8223 C   0  0  0  0  0  0  0  0  0  0  0  0
   31.5390   10.1035   16.9407 C   0  0  0  0  0  0  0  0  0  0  0  0
   32.8128   10.1065   17.3960 F   0  0  0  0  0  0  0  0  0  0  0  0
   31.4157    9.0696   16.0753 F   0  0  0  0  0  0  0  0  0  0  0  0
   31.3457   11.2508   16.2460 F   0  0  0  0  0  0  0  0  0  0  0  0
   37.5602   18.2809   33.8150 F   0  0  0  0  0  0  0  0  0  0  0  0
   39.6203   18.3352   33.1260 F   0  0  0  0  0  0  0  0  0  0  0  0
   37.9863   18.4983   31.6966 F   0  0  0  0  0  0  0  0  0  0  0  0
   31.9881   13.1121   27.6136 H   0  0  0  0  0  0  0  0  0  0  0  0
   33.3582   14.1586   27.2357 H   0  0  0  0  0  0  0  0  0  0  0  0
   33.3558   11.6011   28.9211 H   0  0  0  0  0  0  0  0  0  0  0  0
   33.5429   13.2461   29.5169 H   0  0  0  0  0  0  0  0  0  0  0  0
   35.6690   13.5068   28.3021 H   0  0  0  0  0  0  0  0  0  0  0  0
   35.2935   10.6125   27.3737 H   0  0  0  0  0  0  0  0  0  0  0  0
   36.6570   11.6654   26.9976 H   0  0  0  0  0  0  0  0  0  0  0  0
   35.2161   13.2214   25.7582 H   0  0  0  0  0  0  0  0  0  0  0  0
   35.0360   11.5715   25.1433 H   0  0  0  0  0  0  0  0  0  0  0  0
   35.4515   11.2347   30.1747 H   0  0  0  0  0  0  0  0  0  0  0  0
   32.9960   13.8129   24.8040 H   0  0  0  0  0  0  0  0  0  0  0  0
   33.0525   12.1716   24.1690 H   0  0  0  0  0  0  0  0  0  0  0  0
   30.7837   13.3787   25.8043 H   0  0  0  0  0  0  0  0  0  0  0  0
   30.8546   11.6670   25.3755 H   0  0  0  0  0  0  0  0  0  0  0  0
   29.4678   13.2656   23.8901 H   0  0  0  0  0  0  0  0  0  0  0  0
   30.9914   13.9329   23.3226 H   0  0  0  0  0  0  0  0  0  0  0  0
   31.6243   11.4761   22.6574 H   0  0  0  0  0  0  0  0  0  0  0  0
   29.9842   11.0454   23.0893 H   0  0  0  0  0  0  0  0  0  0  0  0
   29.9452   16.4412   19.4986 H   0  0  0  0  0  0  0  0  0  0  0  0
   32.3914   16.6270   19.1375 H   0  0  0  0  0  0  0  0  0  0  0  0
   33.9065   14.7716   19.7606 H   0  0  0  0  0  0  0  0  0  0  0  0
   32.9982   12.6754   20.7468 H   0  0  0  0  0  0  0  0  0  0  0  0
   27.5355   11.1396   21.9551 H   0  0  0  0  0  0  0  0  0  0  0  0
   25.4041   12.3955   21.6737 H   0  0  0  0  0  0  0  0  0  0  0  0
   25.4062   14.6858   20.7312 H   0  0  0  0  0  0  0  0  0  0  0  0
   27.5328   15.7762   20.0634 H   0  0  0  0  0  0  0  0  0  0  0  0
   30.5103   12.0389   18.6503 H   0  0  0  0  0  0  0  0  0  0  0  0
   30.6908    9.0445   18.6181 H   0  0  0  0  0  0  0  0  0  0  0  0
   29.5094    9.9622   17.6732 H   0  0  0  0  0  0  0  0  0  0  0  0
   39.2891   11.7645   34.0866 H   0  0  0  0  0  0  0  0  0  0  0  0
   39.3307    9.3016   33.9138 H   0  0  0  0  0  0  0  0  0  0  0  0
   38.4100    8.1697   31.9055 H   0  0  0  0  0  0  0  0  0  0  0  0
   37.4627    9.5174   30.0511 H   0  0  0  0  0  0  0  0  0  0  0  0
   40.2917   13.8117   31.4271 H   0  0  0  0  0  0  0  0  0  0  0  0
   40.3227   16.2491   31.7301 H   0  0  0  0  0  0  0  0  0  0  0  0
   36.3962   16.0762   33.5269 H   0  0  0  0  0  0  0  0  0  0  0  0
   36.3711   13.6330   33.2198 H   0  0  0  0  0  0  0  0  0  0  0  0
  1  8  1  0
  8  9  1  0
  9 10  1  0
 10 11  1  0
 11 12  1  0
 12 13  1  0
 12 14  1  0
 14 15  2  0
 15 16  1  0
 16 17  1  0
 17 12  1  0
 16 18  2  0
 18 19  1  0
 19 20  2  0
 20 21  1  0
 21 17  2  0
 14 22  1  0
 22 23  2  0
 23 24  1  0
 24 25  2  0
 25 15  1  0
 13 26  2  0
 13 27  1  0
 27 28  1  0
  7 29  1  0
 29 30  1  0
 29 31  2  0
 30 32  1  0
 32 33  2  0
 33 34  1  0
 34 35  2  0
 35 36  1  0
 36 30  2  0
 32 37  1  0
 37 38  2  0
 38 39  1  0
 39 40  2  0
 40 41  1  0
 41 42  2  0
 42 37  1  0
 40 43  1  0
 28 44  1  0
  1  2  1  0
  2  3  1  0
 44 45  1  0
  3  4  1  0
 44 46  1  0
  4  5  1  0
 44 47  1  0
  5  6  1  0
 43 48  1  0
  6  1  1  0
 43 49  1  0
  4  7  1  0
 43 50  1  0
  2 51  1  0
  2 52  1  0
  3 53  1  0
  3 54  1  0
  4 55  1  0
  5 56  1  0
  5 57  1  0
  6 58  1  0
  6 59  1  0
  7 60  1  0
  8 61  1  0
  8 62  1  0
  9 63  1  0
  9 64  1  0
 10 65  1  0
 10 66  1  0
 11 67  1  0
 11 68  1  0
 18 69  1  0
 19 70  1  0
 20 71  1  0
 21 72  1  0
 22 73  1  0
 23 74  1  0
 24 75  1  0
 25 76  1  0
 27 77  1  0
 28 78  1  0
 28 79  1  0
 33 80  1  0
 34 81  1  0
 35 82  1  0
 36 83  1  0
 38 84  1  0
 39 85  1  0
 41 86  1  0
 42 87  1  0
M  END
> <Uni-Dock RESULT> 
ENERGY=   -3.581  LOWER_BOUND=    9.176  UPPER_BOUND=   11.848
INTER + INTRA:          -3.581
INTER:                  -3.581
INTRA:                   0.000
UNBOUND:                 0.000

$$$$

     RDKit          3D

 87 92  0  0  0  0  0  0  0  0999 V2000
   32.6331   10.4399   27.1584 N   0  0  0  0  0  0  0  0  0  0  0  0
   34.0239    9.9845   27.3098 C   0  0  0  0  0  0  0  0  0  0  0  0
   34.3088    9.5345   28.7454 C   0  0  0  0  0  0  0  0  0  0  0  0
   33.3373    8.4391   29.1815 C   0  0  0  0  0  0  0  0  0  0  0  0
   31.8950    8.9074   28.9759 C   0  0  0  0  0  0  0  0  0  0  0  0
   31.6872    9.3714   27.5361 C   0  0  0  0  0  0  0  0  0  0  0  0
   33.5704    8.0478   30.5666 N   0  0  0  0  0  0  0  0  0  0  0  0
   32.3376   10.8810   25.7805 C   0  0  0  0  0  0  0  0  0  0  0  0
   33.1103   12.1411   25.3519 C   0  0  0  0  0  0  0  0  0  0  0  0
   32.6486   12.6695   23.9851 C   0  0  0  0  0  0  0  0  0  0  0  0
   31.3343   13.4685   24.0723 C   0  0  0  0  0  0  0  0  0  0  0  0
   30.6943   13.8596   22.7118 C   0  0  0  0  0  0  0  0  0  0  0  0
   29.4163   14.7069   22.9773 C   0  0  0  0  0  0  0  0  0  0  0  0
   31.6453   14.6657   21.8129 C   0  0  0  0  0  0  0  0  0  0  0  0
   31.8743   13.9802   20.5995 C   0  0  0  0  0  0  0  0  0  0  0  0
   31.1332   12.7358   20.6101 C   0  0  0  0  0  0  0  0  0  0  0  0
   30.4293   12.6247   21.8319 C   0  0  0  0  0  0  0  0  0  0  0  0
   31.0337   11.7416   19.6513 C   0  0  0  0  0  0  0  0  0  0  0  0
   30.2272   10.6314   19.9220 C   0  0  0  0  0  0  0  0  0  0  0  0
   29.5353   10.5219   21.1383 C   0  0  0  0  0  0  0  0  0  0  0  0
   29.6315   11.5221   22.1072 C   0  0  0  0  0  0  0  0  0  0  0  0
   32.2281   15.8997   22.0644 C   0  0  0  0  0  0  0  0  0  0  0  0
   33.0591   16.4469   21.0845 C   0  0  0  0  0  0  0  0  0  0  0  0
   33.2938   15.7664   19.8796 C   0  0  0  0  0  0  0  0  0  0  0  0
   32.6997   14.5272   19.6300 C   0  0  0  0  0  0  0  0  0  0  0  0
   29.3473   15.5158   23.9082 O   0  0  0  0  0  0  0  0  0  0  0  0
   28.3810   14.5819   22.0655 N   0  0  0  0  0  0  0  0  0  0  0  0
   27.1871   15.4295   22.1321 C   0  0  0  0  0  0  0  0  0  0  0  0
   33.1763    6.8143   31.0454 C   0  0  0  0  0  0  0  0  0  0  0  0
   33.3487    6.6327   32.5052 C   0  0  0  0  0  0  0  0  0  0  0  0
   32.6824    5.9284   30.3618 O   0  0  0  0  0  0  0  0  0  0  0  0
   34.2025    5.6402   33.0212 C   0  0  0  0  0  0  0  0  0  0  0  0
   34.2907    5.5130   34.4212 C   0  0  0  0  0  0  0  0  0  0  0  0
   33.5507    6.3413   35.2714 C   0  0  0  0  0  0  0  0  0  0  0  0
   32.7086    7.3165   34.7412 C   0  0  0  0  0  0  0  0  0  0  0  0
   32.6058    7.4657   33.3578 C   0  0  0  0  0  0  0  0  0  0  0  0
   35.0081    4.7540   32.1725 C   0  0  0  0  0  0  0  0  0  0  0  0
   34.5076    3.5056   31.7740 C   0  0  0  0  0  0  0  0  0  0  0  0
   35.2795    2.6415   30.9942 C   0  0  0  0  0  0  0  0  0  0  0  0
   36.5763    3.0018   30.6000 C   0  0  0  0  0  0  0  0  0  0  0  0
   37.0775    4.2557   30.9885 C   0  0  0  0  0  0  0  0  0  0  0  0
   36.3006    5.1212   31.7660 C   0  0  0  0  0  0  0  0  0  0  0  0
   37.3970    2.0700   29.7436 C   0  0  0  0  0  0  0  0  0  0  0  0
   25.9047   14.7608   21.6271 C   0  0  0  0  0  0  0  0  0  0  0  0
   25.5757   13.6799   22.3709 F   0  0  0  0  0  0  0  0  0  0  0  0
   24.8589   15.6196   21.6674 F   0  0  0  0  0  0  0  0  0  0  0  0
   26.0544   14.3498   20.3444 F   0  0  0  0  0  0  0  0  0  0  0  0
   38.7369    2.2890   29.8526 F   0  0  0  0  0  0  0  0  0  0  0  0
   37.2114    0.7550   30.0550 F   0  0  0  0  0  0  0  0  0  0  0  0
   37.1097    2.1866   28.4180 F   0  0  0  0  0  0  0  0  0  0  0  0
   34.7198   10.7985   27.0822 H   0  0  0  0  0  0  0  0  0  0  0  0
   34.2432    9.1643   26.6159 H   0  0  0  0  0  0  0  0  0  0  0  0
   34.2302   10.3977   29.4196 H   0  0  0  0  0  0  0  0  0  0  0  0
   35.3417    9.1717   28.8214 H   0  0  0  0  0  0  0  0  0  0  0  0
   33.5053    7.5529   28.5553 H   0  0  0  0  0  0  0  0  0  0  0  0
   31.6591    9.7258   29.6731 H   0  0  0  0  0  0  0  0  0  0  0  0
   31.1903    8.0928   29.2017 H   0  0  0  0  0  0  0  0  0  0  0  0
   31.7875    8.5127   26.8564 H   0  0  0  0  0  0  0  0  0  0  0  0
   30.6565    9.7394   27.4471 H   0  0  0  0  0  0  0  0  0  0  0  0
   33.8723    8.7539   31.2271 H   0  0  0  0  0  0  0  0  0  0  0  0
   32.5302   10.0695   25.0637 H   0  0  0  0  0  0  0  0  0  0  0  0
   31.2672   11.1085   25.7161 H   0  0  0  0  0  0  0  0  0  0  0  0
   34.1754   11.8958   25.2671 H   0  0  0  0  0  0  0  0  0  0  0  0
   33.0186   12.9301   26.1103 H   0  0  0  0  0  0  0  0  0  0  0  0
   33.4328   13.3242   23.5888 H   0  0  0  0  0  0  0  0  0  0  0  0
   32.5615   11.8270   23.2923 H   0  0  0  0  0  0  0  0  0  0  0  0
   30.5926   12.9024   24.6508 H   0  0  0  0  0  0  0  0  0  0  0  0
   31.5395   14.3738   24.6617 H   0  0  0  0  0  0  0  0  0  0  0  0
   31.5647   11.8122   18.7080 H   0  0  0  0  0  0  0  0  0  0  0  0
   30.1371    9.8405   19.1802 H   0  0  0  0  0  0  0  0  0  0  0  0
   28.9196    9.6452   21.3263 H   0  0  0  0  0  0  0  0  0  0  0  0
   29.0932   11.4361   23.0451 H   0  0  0  0  0  0  0  0  0  0  0  0
   32.0348   16.4366   22.9910 H   0  0  0  0  0  0  0  0  0  0  0  0
   33.5280   17.4141   21.2547 H   0  0  0  0  0  0  0  0  0  0  0  0
   33.9440   16.2127   19.1293 H   0  0  0  0  0  0  0  0  0  0  0  0
   32.8923   14.0073   18.6967 H   0  0  0  0  0  0  0  0  0  0  0  0
   28.5744   14.1279   21.1809 H   0  0  0  0  0  0  0  0  0  0  0  0
   27.0341   15.7703   23.1633 H   0  0  0  0  0  0  0  0  0  0  0  0
   27.4042   16.3151   21.5211 H   0  0  0  0  0  0  0  0  0  0  0  0
   34.9412    4.7546   34.8567 H   0  0  0  0  0  0  0  0  0  0  0  0
   33.6248    6.2144   36.3512 H   0  0  0  0  0  0  0  0  0  0  0  0
   32.1271    7.9534   35.4052 H   0  0  0  0  0  0  0  0  0  0  0  0
   31.9325    8.2141   32.9463 H   0  0  0  0  0  0  0  0  0  0  0  0
   33.5018    3.2043   32.0649 H   0  0  0  0  0  0  0  0  0  0  0  0
   34.8616    1.6803   30.7003 H   0  0  0  0  0  0  0  0  0  0  0  0
   38.0812    4.5630   30.6882 H   0  0  0  0  0  0  0  0  0  0  0  0
   36.7127    6.0865   32.0558 H   0  0  0  0  0  0  0  0  0  0  0  0
  1  8  1  0
  8  9  1  0
  9 10  1  0
 10 11  1  0
 11 12  1  0
 12 13  1  0
 12 14  1  0
 14 15  2  0
 15 16  1  0
 16 17  1  0
 17 12  1  0
 16 18  2  0
 18 19  1  0
 19 20  2  0
 20 21  1  0
 21 17  2  0
 14 22  1  0
 22 23  2  0
 23 24  1  0
 24 25  2  0
 25 15  1  0
 13 26  2  0
 13 27  1  0
 27 28  1  0
  7 29  1  0
 29 30  1  0
 29 31  2  0
 30 32  1  0
 32 33  2  0
 33 34  1  0
 34 35  2  0
 35 36  1  0
 36 30  2  0
 32 37  1  0
 37 38  2  0
 38 39  1  0
 39 40  2  0
 40 41  1  0
 41 42  2  0
 42 37  1  0
 40 43  1  0
 28 44  1  0
  1  2  1  0
  2  3  1  0
 44 45  1  0
  3  4  1  0
 44 46  1  0
  4  5  1  0
 44 47  1  0
  5  6  1  0
 43 48  1  0
  6  1  1  0
 43 49  1  0
  4  7  1  0
 43 50  1  0
  2 51  1  0
  2 52  1  0
  3 53  1  0
  3 54  1  0
  4 55  1  0
  5 56  1  0
  5 57  1  0
  6 58  1  0
  6 59  1  0
  7 60  1  0
  8 61  1  0
  8 62  1  0
  9 63  1  0
  9 64  1  0
 10 65  1  0
 10 66  1  0
 11 67  1  0
 11 68  1  0
 18 69  1  0
 19 70  1  0
 20 71  1  0
 21 72  1  0
 22 73  1  0
 23 74  1  0
 24 75  1  0
 25 76  1  0
 27 77  1  0
 28 78  1  0
 28 79  1  0
 33 80  1  0
 34 81  1  0
 35 82  1  0
 36 83  1  0
 38 84  1  0
 39 85  1  0
 41 86  1  0
 42 87  1  0
M  END
> <Uni-Dock RESULT> 
ENERGY=   -3.554  LOWER_BOUND=    6.549  UPPER_BOUND=    7.568
INTER + INTRA:          -3.554
INTER:                  -3.554
INTRA:                   0.000
UNBOUND:                 0.000

$$$$
