
     RDKit          3D

 87 92  0  0  0  0  0  0  0  0999 V2000
   26.9368   11.8713   27.4378 N   0  0  0  0  0  0  0  0  0  0  0  0
   27.4224   11.0807   26.2955 C   0  0  0  0  0  0  0  0  0  0  0  0
   28.0409   11.9819   25.2281 C   0  0  0  0  0  0  0  0  0  0  0  0
   29.1677   12.8333   25.8090 C   0  0  0  0  0  0  0  0  0  0  0  0
   28.6802   13.5861   27.0460 C   0  0  0  0  0  0  0  0  0  0  0  0
   28.0430   12.6282   28.0497 C   0  0  0  0  0  0  0  0  0  0  0  0
   29.6763   13.7544   24.8040 N   0  0  0  0  0  0  0  0  0  0  0  0
   26.2717   11.0348   28.4521 C   0  0  0  0  0  0  0  0  0  0  0  0
   24.9237   10.4799   27.9663 C   0  0  0  0  0  0  0  0  0  0  0  0
   24.0888    9.8507   29.0908 C   0  0  0  0  0  0  0  0  0  0  0  0
   24.6524    8.5104   29.5836 C   0  0  0  0  0  0  0  0  0  0  0  0
   23.9741    7.9185   30.8530 C   0  0  0  0  0  0  0  0  0  0  0  0
   24.0175    8.8633   32.0893 C   0  0  0  0  0  0  0  0  0  0  0  0
   22.5362    7.4417   30.5565 C   0  0  0  0  0  0  0  0  0  0  0  0
   22.4521    6.0365   30.6516 C   0  0  0  0  0  0  0  0  0  0  0  0
   23.7403    5.5069   31.0359 C   0  0  0  0  0  0  0  0  0  0  0  0
   24.6585    6.5695   31.1853 C   0  0  0  0  0  0  0  0  0  0  0  0
   24.1291    4.1952   31.2620 C   0  0  0  0  0  0  0  0  0  0  0  0
   25.4486    3.9446   31.6434 C   0  0  0  0  0  0  0  0  0  0  0  0
   26.3624    4.9980   31.7916 C   0  0  0  0  0  0  0  0  0  0  0  0
   25.9744    6.3200   31.5592 C   0  0  0  0  0  0  0  0  0  0  0  0
   21.4052    8.1982   30.2724 C   0  0  0  0  0  0  0  0  0  0  0  0
   20.1977    7.5374   30.0377 C   0  0  0  0  0  0  0  0  0  0  0  0
   20.1235    6.1388   30.1017 C   0  0  0  0  0  0  0  0  0  0  0  0
   21.2528    5.3796   30.4171 C   0  0  0  0  0  0  0  0  0  0  0  0
   23.0807    9.0113   32.8723 O   0  0  0  0  0  0  0  0  0  0  0  0
   25.2006    9.5588   32.2834 N   0  0  0  0  0  0  0  0  0  0  0  0
   25.4006   10.3452   33.5037 C   0  0  0  0  0  0  0  0  0  0  0  0
   30.9605   14.2489   24.8392 C   0  0  0  0  0  0  0  0  0  0  0  0
   31.2988   15.2435   23.7857 C   0  0  0  0  0  0  0  0  0  0  0  0
   31.7903   13.9478   25.6897 O   0  0  0  0  0  0  0  0  0  0  0  0
   31.0258   15.0384   22.4148 C   0  0  0  0  0  0  0  0  0  0  0  0
   31.3594   16.0742   21.5197 C   0  0  0  0  0  0  0  0  0  0  0  0
   31.9574   17.2566   21.9643 C   0  0  0  0  0  0  0  0  0  0  0  0
   32.2446   17.4291   23.3146 C   0  0  0  0  0  0  0  0  0  0  0  0
   31.9201   16.4242   24.2237 C   0  0  0  0  0  0  0  0  0  0  0  0
   30.4603   13.7879   21.8788 C   0  0  0  0  0  0  0  0  0  0  0  0
   29.2196   13.7796   21.2226 C   0  0  0  0  0  0  0  0  0  0  0  0
   28.6704   12.5875   20.7393 C   0  0  0  0  0  0  0  0  0  0  0  0
   29.3558   11.3735   20.8897 C   0  0  0  0  0  0  0  0  0  0  0  0
   30.5982   11.3774   21.5374 C   0  0  0  0  0  0  0  0  0  0  0  0
   31.1449   12.5705   22.0195 C   0  0  0  0  0  0  0  0  0  0  0  0
   28.7468   10.0810   20.4050 C   0  0  0  0  0  0  0  0  0  0  0  0
   25.9428    9.5526   34.6957 C   0  0  0  0  0  0  0  0  0  0  0  0
   27.1431    9.0081   34.3777 F   0  0  0  0  0  0  0  0  0  0  0  0
   25.1296    8.5525   35.0807 F   0  0  0  0  0  0  0  0  0  0  0  0
   26.1402   10.3632   35.7599 F   0  0  0  0  0  0  0  0  0  0  0  0
   27.9725    9.4900   21.3560 F   0  0  0  0  0  0  0  0  0  0  0  0
   29.6760    9.1515   20.0455 F   0  0  0  0  0  0  0  0  0  0  0  0
   27.9435   10.2440   19.3168 F   0  0  0  0  0  0  0  0  0  0  0  0
   28.1575   10.3332   26.6226 H   0  0  0  0  0  0  0  0  0  0  0  0
   26.5976   10.5388   25.8210 H   0  0  0  0  0  0  0  0  0  0  0  0
   28.4241   11.3676   24.4038 H   0  0  0  0  0  0  0  0  0  0  0  0
   27.2629   12.6270   24.7966 H   0  0  0  0  0  0  0  0  0  0  0  0
   29.9939   12.1725   26.1039 H   0  0  0  0  0  0  0  0  0  0  0  0
   27.9516   14.3555   26.7561 H   0  0  0  0  0  0  0  0  0  0  0  0
   29.5145   14.1148   27.5226 H   0  0  0  0  0  0  0  0  0  0  0  0
   28.8051   11.9471   28.4517 H   0  0  0  0  0  0  0  0  0  0  0  0
   27.6663   13.2261   28.8890 H   0  0  0  0  0  0  0  0  0  0  0  0
   29.0136   14.1758   24.1648 H   0  0  0  0  0  0  0  0  0  0  0  0
   26.9343   10.2216   28.7721 H   0  0  0  0  0  0  0  0  0  0  0  0
   26.0699   11.6494   29.3388 H   0  0  0  0  0  0  0  0  0  0  0  0
   24.3379   11.3003   27.5307 H   0  0  0  0  0  0  0  0  0  0  0  0
   25.0704    9.7360   27.1749 H   0  0  0  0  0  0  0  0  0  0  0  0
   23.9930   10.5650   29.9148 H   0  0  0  0  0  0  0  0  0  0  0  0
   23.0841    9.6893   28.6881 H   0  0  0  0  0  0  0  0  0  0  0  0
   25.7256    8.6261   29.7710 H   0  0  0  0  0  0  0  0  0  0  0  0
   24.5816    7.7891   28.7564 H   0  0  0  0  0  0  0  0  0  0  0  0
   23.4280    3.3744   31.1532 H   0  0  0  0  0  0  0  0  0  0  0  0
   25.7697    2.9227   31.8325 H   0  0  0  0  0  0  0  0  0  0  0  0
   27.3843    4.7800   32.0946 H   0  0  0  0  0  0  0  0  0  0  0  0
   26.7025    7.1138   31.6764 H   0  0  0  0  0  0  0  0  0  0  0  0
   21.4390    9.2827   30.2570 H   0  0  0  0  0  0  0  0  0  0  0  0
   19.3026    8.1140   29.8171 H   0  0  0  0  0  0  0  0  0  0  0  0
   19.1728    5.6423   29.9223 H   0  0  0  0  0  0  0  0  0  0  0  0
   21.1791    4.2998   30.4871 H   0  0  0  0  0  0  0  0  0  0  0  0
   26.0278    9.2634   31.7834 H   0  0  0  0  0  0  0  0  0  0  0  0
   26.1127   11.1353   33.2450 H   0  0  0  0  0  0  0  0  0  0  0  0
   24.4576   10.8280   33.7815 H   0  0  0  0  0  0  0  0  0  0  0  0
   31.1768   15.9521   20.4529 H   0  0  0  0  0  0  0  0  0  0  0  0
   32.2138   18.0363   21.2506 H   0  0  0  0  0  0  0  0  0  0  0  0
   32.7241   18.3417   23.6592 H   0  0  0  0  0  0  0  0  0  0  0  0
   32.1464   16.5594   25.2796 H   0  0  0  0  0  0  0  0  0  0  0  0
   28.6617   14.7060   21.0949 H   0  0  0  0  0  0  0  0  0  0  0  0
   27.6999   12.6103   20.2449 H   0  0  0  0  0  0  0  0  0  0  0  0
   31.1507   10.4488   21.6750 H   0  0  0  0  0  0  0  0  0  0  0  0
   32.1120   12.5420   22.5206 H   0  0  0  0  0  0  0  0  0  0  0  0
  1  8  1  0
  8  9  1  0
  9 10  1  0
 10 11  1  0
 11 12  1  0
 12 13  1  0
 12 14  1  0
 14 15  2  0
 15 16  1  0
 16 17  1  0
 17 12  1  0
 16 18  2  0
 18 19  1  0
 19 20  2  0
 20 21  1  0
 21 17  2  0
 14 22  1  0
 22 23  2  0
 23 24  1  0
 24 25  2  0
 25 15  1  0
 13 26  2  0
 13 27  1  0
 27 28  1  0
  7 29  1  0
 29 30  1  0
 29 31  2  0
 30 32  1  0
 32 33  2  0
 33 34  1  0
 34 35  2  0
 35 36  1  0
 36 30  2  0
 32 37  1  0
 37 38  2  0
 38 39  1  0
 39 40  2  0
 40 41  1  0
 41 42  2  0
 42 37  1  0
 40 43  1  0
 28 44  1  0
  1  2  1  0
  2  3  1  0
 44 45  1  0
  3  4  1  0
 44 46  1  0
  4  5  1  0
 44 47  1  0
  5  6  1  0
 43 48  1  0
  6  1  1  0
 43 49  1  0
  4  7  1  0
 43 50  1  0
  2 51  1  0
  2 52  1  0
  3 53  1  0
  3 54  1  0
  4 55  1  0
  5 56  1  0
  5 57  1  0
  6 58  1  0
  6 59  1  0
  7 60  1  0
  8 61  1  0
  8 62  1  0
  9 63  1  0
  9 64  1  0
 10 65  1  0
 10 66  1  0
 11 67  1  0
 11 68  1  0
 18 69  1  0
 19 70  1  0
 20 71  1  0
 21 72  1  0
 22 73  1  0
 23 74  1  0
 24 75  1  0
 25 76  1  0
 27 77  1  0
 28 78  1  0
 28 79  1  0
 33 80  1  0
 34 81  1  0
 35 82  1  0
 36 83  1  0
 38 84  1  0
 39 85  1  0
 41 86  1  0
 42 87  1  0
M  END
> <Uni-Dock RESULT> 
ENERGY=   -5.487  LOWER_BOUND=    0.000  UPPER_BOUND=    0.000
INTER + INTRA:          -5.487
INTER:                  -5.487
INTRA:                   0.000
UNBOUND:                 0.000

$$$$

     RDKit          3D

 87 92  0  0  0  0  0  0  0  0999 V2000
   26.9164   11.8431   27.4682 N   0  0  0  0  0  0  0  0  0  0  0  0
   27.4223   11.0636   26.3270 C   0  0  0  0  0  0  0  0  0  0  0  0
   28.0249   11.9783   25.2620 C   0  0  0  0  0  0  0  0  0  0  0  0
   29.1316   12.8529   25.8469 C   0  0  0  0  0  0  0  0  0  0  0  0
   28.6245   13.5946   27.0827 C   0  0  0  0  0  0  0  0  0  0  0  0
   28.0045   12.6229   28.0840 C   0  0  0  0  0  0  0  0  0  0  0  0
   29.6238   13.7851   24.8440 N   0  0  0  0  0  0  0  0  0  0  0  0
   26.2660   10.9922   28.4800 C   0  0  0  0  0  0  0  0  0  0  0  0
   24.9316   10.4092   27.9897 C   0  0  0  0  0  0  0  0  0  0  0  0
   24.1066    9.7619   29.1112 C   0  0  0  0  0  0  0  0  0  0  0  0
   24.6969    8.4335   29.6051 C   0  0  0  0  0  0  0  0  0  0  0  0
   24.0273    7.8267   30.8722 C   0  0  0  0  0  0  0  0  0  0  0  0
   24.0468    8.7716   32.1090 C   0  0  0  0  0  0  0  0  0  0  0  0
   22.6007    7.3198   30.5709 C   0  0  0  0  0  0  0  0  0  0  0  0
   22.5460    5.9131   30.6651 C   0  0  0  0  0  0  0  0  0  0  0  0
   23.8438    5.4106   31.0532 C   0  0  0  0  0  0  0  0  0  0  0  0
   24.7390    6.4923   31.2059 C   0  0  0  0  0  0  0  0  0  0  0  0
   24.2596    4.1073   31.2798 C   0  0  0  0  0  0  0  0  0  0  0  0
   25.5829    3.8845   31.6653 C   0  0  0  0  0  0  0  0  0  0  0  0
   26.4738    4.9569   31.8169 C   0  0  0  0  0  0  0  0  0  0  0  0
   26.0586    6.2705   31.5838 C   0  0  0  0  0  0  0  0  0  0  0  0
   21.4548    8.0524   30.2836 C   0  0  0  0  0  0  0  0  0  0  0  0
   20.2623    7.3663   30.0448 C   0  0  0  0  0  0  0  0  0  0  0  0
   20.2175    5.9664   30.1079 C   0  0  0  0  0  0  0  0  0  0  0  0
   21.3616    5.2312   30.4264 C   0  0  0  0  0  0  0  0  0  0  0  0
   23.1046    8.8993   32.8891 O   0  0  0  0  0  0  0  0  0  0  0  0
   25.2144    9.4918   32.3072 N   0  0  0  0  0  0  0  0  0  0  0  0
   25.3938   10.2816   33.5285 C   0  0  0  0  0  0  0  0  0  0  0  0
   30.8972   14.3066   24.8834 C   0  0  0  0  0  0  0  0  0  0  0  0
   31.2177   15.3088   23.8315 C   0  0  0  0  0  0  0  0  0  0  0  0
   31.7304   14.0227   25.7364 O   0  0  0  0  0  0  0  0  0  0  0  0
   30.9534   15.0987   22.4597 C   0  0  0  0  0  0  0  0  0  0  0  0
   31.2679   16.1418   21.5661 C   0  0  0  0  0  0  0  0  0  0  0  0
   31.8394   17.3364   22.0131 C   0  0  0  0  0  0  0  0  0  0  0  0
   32.1185   17.5142   23.3644 C   0  0  0  0  0  0  0  0  0  0  0  0
   31.8126   16.5021   24.2720 C   0  0  0  0  0  0  0  0  0  0  0  0
   30.4161   13.8369   21.9213 C   0  0  0  0  0  0  0  0  0  0  0  0
   29.1780   13.8027   21.2611 C   0  0  0  0  0  0  0  0  0  0  0  0
   28.6555   12.5995   20.7755 C   0  0  0  0  0  0  0  0  0  0  0  0
   29.3660   11.4001   20.9275 C   0  0  0  0  0  0  0  0  0  0  0  0
   30.6060   11.4300   21.5791 C   0  0  0  0  0  0  0  0  0  0  0  0
   31.1258   12.6341   22.0635 C   0  0  0  0  0  0  0  0  0  0  0  0
   28.7859   10.0954   20.4403 C   0  0  0  0  0  0  0  0  0  0  0  0
   25.9489    9.4999   34.7218 C   0  0  0  0  0  0  0  0  0  0  0  0
   27.1615    8.9811   34.4073 F   0  0  0  0  0  0  0  0  0  0  0  0
   25.1558    8.4826   35.1038 F   0  0  0  0  0  0  0  0  0  0  0  0
   26.1258   10.3139   35.7871 F   0  0  0  0  0  0  0  0  0  0  0  0
   28.0213    9.4876   21.3885 F   0  0  0  0  0  0  0  0  0  0  0  0
   29.7357    9.1859   20.0832 F   0  0  0  0  0  0  0  0  0  0  0  0
   27.9828   10.2420   19.3497 F   0  0  0  0  0  0  0  0  0  0  0  0
   28.1719   10.3316   26.6561 H   0  0  0  0  0  0  0  0  0  0  0  0
   26.6106   10.5046   25.8497 H   0  0  0  0  0  0  0  0  0  0  0  0
   28.4236   11.3726   24.4386 H   0  0  0  0  0  0  0  0  0  0  0  0
   27.2348   12.6070   24.8284 H   0  0  0  0  0  0  0  0  0  0  0  0
   29.9707   12.2096   26.1441 H   0  0  0  0  0  0  0  0  0  0  0  0
   27.8807   14.3486   26.7909 H   0  0  0  0  0  0  0  0  0  0  0  0
   29.4459   14.1405   27.5622 H   0  0  0  0  0  0  0  0  0  0  0  0
   28.7796   11.9578   28.4880 H   0  0  0  0  0  0  0  0  0  0  0  0
   27.6126   13.2123   28.9224 H   0  0  0  0  0  0  0  0  0  0  0  0
   28.9544   14.1928   24.2028 H   0  0  0  0  0  0  0  0  0  0  0  0
   26.9447   10.1930   28.8016 H   0  0  0  0  0  0  0  0  0  0  0  0
   26.0485   11.6019   29.3664 H   0  0  0  0  0  0  0  0  0  0  0  0
   24.3299   11.2173   27.5526 H   0  0  0  0  0  0  0  0  0  0  0  0
   25.0964    9.6690   27.1983 H   0  0  0  0  0  0  0  0  0  0  0  0
   23.9932   10.4736   29.9353 H   0  0  0  0  0  0  0  0  0  0  0  0
   23.1068    9.5795   28.7053 H   0  0  0  0  0  0  0  0  0  0  0  0
   25.7668    8.5718   29.7960 H   0  0  0  0  0  0  0  0  0  0  0  0
   24.6439    7.7113   28.7774 H   0  0  0  0  0  0  0  0  0  0  0  0
   23.5764    3.2719   31.1684 H   0  0  0  0  0  0  0  0  0  0  0  0
   25.9250    2.8695   31.8549 H   0  0  0  0  0  0  0  0  0  0  0  0
   27.4991    4.7603   32.1229 H   0  0  0  0  0  0  0  0  0  0  0  0
   26.7695    7.0794   31.7038 H   0  0  0  0  0  0  0  0  0  0  0  0
   21.4658    9.1374   30.2688 H   0  0  0  0  0  0  0  0  0  0  0  0
   19.3559    7.9241   29.8216 H   0  0  0  0  0  0  0  0  0  0  0  0
   19.2781    5.4502   29.9252 H   0  0  0  0  0  0  0  0  0  0  0  0
   21.3105    4.1500   30.4957 H   0  0  0  0  0  0  0  0  0  0  0  0
   26.0492    9.2142   31.8096 H   0  0  0  0  0  0  0  0  0  0  0  0
   26.0899   11.0867   33.2724 H   0  0  0  0  0  0  0  0  0  0  0  0
   24.4400   10.7442   33.8035 H   0  0  0  0  0  0  0  0  0  0  0  0
   31.0912   16.0165   20.4986 H   0  0  0  0  0  0  0  0  0  0  0  0
   32.0814   18.1217   21.3006 H   0  0  0  0  0  0  0  0  0  0  0  0
   32.5776   18.4364   23.7109 H   0  0  0  0  0  0  0  0  0  0  0  0
   32.0326   16.6415   25.3286 H   0  0  0  0  0  0  0  0  0  0  0  0
   28.6010   14.7171   21.1322 H   0  0  0  0  0  0  0  0  0  0  0  0
   27.6863   12.6021   20.2781 H   0  0  0  0  0  0  0  0  0  0  0  0
   31.1776   10.5132   21.7180 H   0  0  0  0  0  0  0  0  0  0  0  0
   32.0917   12.6258   22.5676 H   0  0  0  0  0  0  0  0  0  0  0  0
  1  8  1  0
  8  9  1  0
  9 10  1  0
 10 11  1  0
 11 12  1  0
 12 13  1  0
 12 14  1  0
 14 15  2  0
 15 16  1  0
 16 17  1  0
 17 12  1  0
 16 18  2  0
 18 19  1  0
 19 20  2  0
 20 21  1  0
 21 17  2  0
 14 22  1  0
 22 23  2  0
 23 24  1  0
 24 25  2  0
 25 15  1  0
 13 26  2  0
 13 27  1  0
 27 28  1  0
  7 29  1  0
 29 30  1  0
 29 31  2  0
 30 32  1  0
 32 33  2  0
 33 34  1  0
 34 35  2  0
 35 36  1  0
 36 30  2  0
 32 37  1  0
 37 38  2  0
 38 39  1  0
 39 40  2  0
 40 41  1  0
 41 42  2  0
 42 37  1  0
 40 43  1  0
 28 44  1  0
  1  2  1  0
  2  3  1  0
 44 45  1  0
  3  4  1  0
 44 46  1  0
  4  5  1  0
 44 47  1  0
  5  6  1  0
 43 48  1  0
  6  1  1  0
 43 49  1  0
  4  7  1  0
 43 50  1  0
  2 51  1  0
  2 52  1  0
  3 53  1  0
  3 54  1  0
  4 55  1  0
  5 56  1  0
  5 57  1  0
  6 58  1  0
  6 59  1  0
  7 60  1  0
  8 61  1  0
  8 62  1  0
  9 63  1  0
  9 64  1  0
 10 65  1  0
 10 66  1  0
 11 67  1  0
 11 68  1  0
 18 69  1  0
 19 70  1  0
 20 71  1  0
 21 72  1  0
 22 73  1  0
 23 74  1  0
 24 75  1  0
 25 76  1  0
 27 77  1  0
 28 78  1  0
 28 79  1  0
 33 80  1  0
 34 81  1  0
 35 82  1  0
 36 83  1  0
 38 84  1  0
 39 85  1  0
 41 86  1  0
 42 87  1  0
M  END
> <Uni-Dock RESULT> 
ENERGY=   -5.486  LOWER_BOUND=    0.105  UPPER_BOUND=    0.105
INTER + INTRA:          -5.486
INTER:                  -5.486
INTRA:                   0.000
UNBOUND:                 0.000

$$$$

     RDKit          3D

 87 92  0  0  0  0  0  0  0  0999 V2000
   25.3504   10.8169   28.4838 N   0  0  0  0  0  0  0  0  0  0  0  0
   25.6484    9.3802   28.5979 C   0  0  0  0  0  0  0  0  0  0  0  0
   24.9900    8.7804   29.8392 C   0  0  0  0  0  0  0  0  0  0  0  0
   23.4813    9.0165   29.8331 C   0  0  0  0  0  0  0  0  0  0  0  0
   23.1772   10.4999   29.6285 C   0  0  0  0  0  0  0  0  0  0  0  0
   23.8963   11.0373   28.3935 C   0  0  0  0  0  0  0  0  0  0  0  0
   22.8871    8.5272   31.0678 N   0  0  0  0  0  0  0  0  0  0  0  0
   26.0304   11.4376   27.3334 C   0  0  0  0  0  0  0  0  0  0  0  0
   27.5514   11.5327   27.5294 C   0  0  0  0  0  0  0  0  0  0  0  0
   28.2406   12.4228   26.4853 C   0  0  0  0  0  0  0  0  0  0  0  0
   28.2924   11.7864   25.0892 C   0  0  0  0  0  0  0  0  0  0  0  0
   28.7937   12.7122   23.9431 C   0  0  0  0  0  0  0  0  0  0  0  0
   27.9564   14.0133   23.7722 C   0  0  0  0  0  0  0  0  0  0  0  0
   30.2990   13.0236   24.0844 C   0  0  0  0  0  0  0  0  0  0  0  0
   31.0283   12.4225   23.0368 C   0  0  0  0  0  0  0  0  0  0  0  0
   30.1141   11.7410   22.1495 C   0  0  0  0  0  0  0  0  0  0  0  0
   28.7938   11.8981   22.6257 C   0  0  0  0  0  0  0  0  0  0  0  0
   30.3701   11.0283   20.9879 C   0  0  0  0  0  0  0  0  0  0  0  0
   29.2944   10.4695   20.2949 C   0  0  0  0  0  0  0  0  0  0  0  0
   27.9826   10.6235   20.7662 C   0  0  0  0  0  0  0  0  0  0  0  0
   27.7228   11.3366   21.9393 C   0  0  0  0  0  0  0  0  0  0  0  0
   30.9447   13.8059   25.0349 C   0  0  0  0  0  0  0  0  0  0  0  0
   32.3320   13.9455   24.9585 C   0  0  0  0  0  0  0  0  0  0  0  0
   33.0584   13.3211   23.9347 C   0  0  0  0  0  0  0  0  0  0  0  0
   32.4068   12.5599   22.9616 C   0  0  0  0  0  0  0  0  0  0  0  0
   28.4445   15.1161   23.5315 O   0  0  0  0  0  0  0  0  0  0  0  0
   26.5835   13.8762   23.9054 N   0  0  0  0  0  0  0  0  0  0  0  0
   25.6982   15.0039   23.6020 C   0  0  0  0  0  0  0  0  0  0  0  0
   21.5723    8.1266   31.1456 C   0  0  0  0  0  0  0  0  0  0  0  0
   21.0966    7.7308   32.4985 C   0  0  0  0  0  0  0  0  0  0  0  0
   20.7980    8.1206   30.1954 O   0  0  0  0  0  0  0  0  0  0  0  0
   21.8001    6.8323   33.3314 C   0  0  0  0  0  0  0  0  0  0  0  0
   21.2646    6.5680   34.6077 C   0  0  0  0  0  0  0  0  0  0  0  0
   20.0698    7.1560   35.0322 C   0  0  0  0  0  0  0  0  0  0  0  0
   19.3762    8.0165   34.1873 C   0  0  0  0  0  0  0  0  0  0  0  0
   19.8851    8.3011   32.9218 C   0  0  0  0  0  0  0  0  0  0  0  0
   23.0264    6.1303   32.9139 C   0  0  0  0  0  0  0  0  0  0  0  0
   24.2387    6.3287   33.5928 C   0  0  0  0  0  0  0  0  0  0  0  0
   25.4085    5.6838   33.1781 C   0  0  0  0  0  0  0  0  0  0  0  0
   25.3919    4.8129   32.0792 C   0  0  0  0  0  0  0  0  0  0  0  0
   24.1826    4.6055   31.4025 C   0  0  0  0  0  0  0  0  0  0  0  0
   23.0149    5.2515   31.8193 C   0  0  0  0  0  0  0  0  0  0  0  0
   26.6605    4.1476   31.6056 C   0  0  0  0  0  0  0  0  0  0  0  0
   25.3080   15.1342   22.1276 C   0  0  0  0  0  0  0  0  0  0  0  0
   24.6670   14.0106   21.7210 F   0  0  0  0  0  0  0  0  0  0  0  0
   26.3637   15.3192   21.3146 F   0  0  0  0  0  0  0  0  0  0  0  0
   24.4559   16.1686   21.9473 F   0  0  0  0  0  0  0  0  0  0  0  0
   27.3286    4.9065   30.6940 F   0  0  0  0  0  0  0  0  0  0  0  0
   26.4435    2.9435   31.0059 F   0  0  0  0  0  0  0  0  0  0  0  0
   27.5458    3.9073   32.6128 F   0  0  0  0  0  0  0  0  0  0  0  0
   25.3144    8.8401   27.7020 H   0  0  0  0  0  0  0  0  0  0  0  0
   26.7267    9.2148   28.6935 H   0  0  0  0  0  0  0  0  0  0  0  0
   25.1994    7.7044   29.8840 H   0  0  0  0  0  0  0  0  0  0  0  0
   25.4384    9.2200   30.7411 H   0  0  0  0  0  0  0  0  0  0  0  0
   23.0383    8.4502   29.0028 H   0  0  0  0  0  0  0  0  0  0  0  0
   23.4850   11.0732   30.5136 H   0  0  0  0  0  0  0  0  0  0  0  0
   22.0970   10.6550   29.5203 H   0  0  0  0  0  0  0  0  0  0  0  0
   23.4869   10.5676   27.4890 H   0  0  0  0  0  0  0  0  0  0  0  0
   23.6855   12.1119   28.3257 H   0  0  0  0  0  0  0  0  0  0  0  0
   23.4062    8.6509   31.9283 H   0  0  0  0  0  0  0  0  0  0  0  0
   25.7904   10.8973   26.4098 H   0  0  0  0  0  0  0  0  0  0  0  0
   25.6535   12.4612   27.2114 H   0  0  0  0  0  0  0  0  0  0  0  0
   27.7561   11.9571   28.5214 H   0  0  0  0  0  0  0  0  0  0  0  0
   28.0109   10.5379   27.5060 H   0  0  0  0  0  0  0  0  0  0  0  0
   27.7445   13.3982   26.4558 H   0  0  0  0  0  0  0  0  0  0  0  0
   29.2624   12.5934   26.8382 H   0  0  0  0  0  0  0  0  0  0  0  0
   27.2953   11.4094   24.8357 H   0  0  0  0  0  0  0  0  0  0  0  0
   28.9307   10.8928   25.1483 H   0  0  0  0  0  0  0  0  0  0  0  0
   31.3813   10.9072   20.6140 H   0  0  0  0  0  0  0  0  0  0  0  0
   29.4752    9.9136   19.3776 H   0  0  0  0  0  0  0  0  0  0  0  0
   27.1593   10.1838   20.2074 H   0  0  0  0  0  0  0  0  0  0  0  0
   26.7000   11.4356   22.2829 H   0  0  0  0  0  0  0  0  0  0  0  0
   30.3916   14.3258   25.8102 H   0  0  0  0  0  0  0  0  0  0  0  0
   32.8526   14.5562   25.6922 H   0  0  0  0  0  0  0  0  0  0  0  0
   34.1375   13.4468   23.8880 H   0  0  0  0  0  0  0  0  0  0  0  0
   32.9756   12.1006   22.1605 H   0  0  0  0  0  0  0  0  0  0  0  0
   26.1802   12.9501   23.8716 H   0  0  0  0  0  0  0  0  0  0  0  0
   24.7940   14.8522   24.2000 H   0  0  0  0  0  0  0  0  0  0  0  0
   26.1672   15.9335   23.9417 H   0  0  0  0  0  0  0  0  0  0  0  0
   21.7690    5.8721   35.2767 H   0  0  0  0  0  0  0  0  0  0  0  0
   19.6733    6.9270   36.0188 H   0  0  0  0  0  0  0  0  0  0  0  0
   18.4388    8.4618   34.5104 H   0  0  0  0  0  0  0  0  0  0  0  0
   19.3412    8.9732   32.2610 H   0  0  0  0  0  0  0  0  0  0  0  0
   24.2838    7.0028   34.4468 H   0  0  0  0  0  0  0  0  0  0  0  0
   26.3372    5.8668   33.7173 H   0  0  0  0  0  0  0  0  0  0  0  0
   24.1404    3.9399   30.5413 H   0  0  0  0  0  0  0  0  0  0  0  0
   22.0898    5.0719   31.2722 H   0  0  0  0  0  0  0  0  0  0  0  0
  1  8  1  0
  8  9  1  0
  9 10  1  0
 10 11  1  0
 11 12  1  0
 12 13  1  0
 12 14  1  0
 14 15  2  0
 15 16  1  0
 16 17  1  0
 17 12  1  0
 16 18  2  0
 18 19  1  0
 19 20  2  0
 20 21  1  0
 21 17  2  0
 14 22  1  0
 22 23  2  0
 23 24  1  0
 24 25  2  0
 25 15  1  0
 13 26  2  0
 13 27  1  0
 27 28  1  0
  7 29  1  0
 29 30  1  0
 29 31  2  0
 30 32  1  0
 32 33  2  0
 33 34  1  0
 34 35  2  0
 35 36  1  0
 36 30  2  0
 32 37  1  0
 37 38  2  0
 38 39  1  0
 39 40  2  0
 40 41  1  0
 41 42  2  0
 42 37  1  0
 40 43  1  0
 28 44  1  0
  1  2  1  0
  2  3  1  0
 44 45  1  0
  3  4  1  0
 44 46  1  0
  4  5  1  0
 44 47  1  0
  5  6  1  0
 43 48  1  0
  6  1  1  0
 43 49  1  0
  4  7  1  0
 43 50  1  0
  2 51  1  0
  2 52  1  0
  3 53  1  0
  3 54  1  0
  4 55  1  0
  5 56  1  0
  5 57  1  0
  6 58  1  0
  6 59  1  0
  7 60  1  0
  8 61  1  0
  8 62  1  0
  9 63  1  0
  9 64  1  0
 10 65  1  0
 10 66  1  0
 11 67  1  0
 11 68  1  0
 18 69  1  0
 19 70  1  0
 20 71  1  0
 21 72  1  0
 22 73  1  0
 23 74  1  0
 24 75  1  0
 25 76  1  0
 27 77  1  0
 28 78  1  0
 28 79  1  0
 33 80  1  0
 34 81  1  0
 35 82  1  0
 36 83  1  0
 38 84  1  0
 39 85  1  0
 41 86  1  0
 42 87  1  0
M  END
> <Uni-Dock RESULT> 
ENERGY=   -5.034  LOWER_BOUND=    3.034  UPPER_BOUND=   12.726
INTER + INTRA:          -5.034
INTER:                  -5.034
INTRA:                   0.000
UNBOUND:                 0.000

$$$$

     RDKit          3D

 87 92  0  0  0  0  0  0  0  0999 V2000
   27.6949   11.9785   27.3055 N   0  0  0  0  0  0  0  0  0  0  0  0
   27.6708   11.2485   26.0280 C   0  0  0  0  0  0  0  0  0  0  0  0
   28.5082   11.9658   24.9704 C   0  0  0  0  0  0  0  0  0  0  0  0
   29.9452   12.1666   25.4465 C   0  0  0  0  0  0  0  0  0  0  0  0
   29.9609   12.8487   26.8136 C   0  0  0  0  0  0  0  0  0  0  0  0
   29.0757   12.0985   27.8059 C   0  0  0  0  0  0  0  0  0  0  0  0
   30.6992   12.9376   24.4697 N   0  0  0  0  0  0  0  0  0  0  0  0
   26.8385   11.3471   28.3248 C   0  0  0  0  0  0  0  0  0  0  0  0
   25.3420   11.4888   28.0066 C   0  0  0  0  0  0  0  0  0  0  0  0
   24.4348   11.0963   29.1815 C   0  0  0  0  0  0  0  0  0  0  0  0
   24.4065    9.5839   29.4433 C   0  0  0  0  0  0  0  0  0  0  0  0
   23.6704    9.1366   30.7395 C   0  0  0  0  0  0  0  0  0  0  0  0
   24.2445    9.7694   32.0406 C   0  0  0  0  0  0  0  0  0  0  0  0
   22.1464    9.3559   30.6294 C   0  0  0  0  0  0  0  0  0  0  0  0
   21.4700    8.1181   30.5970 C   0  0  0  0  0  0  0  0  0  0  0  0
   22.4316    7.0464   30.7174 C   0  0  0  0  0  0  0  0  0  0  0  0
   23.7302    7.5913   30.8235 C   0  0  0  0  0  0  0  0  0  0  0  0
   22.2324    5.6744   30.7477 C   0  0  0  0  0  0  0  0  0  0  0  0
   23.3430    4.8399   30.8880 C   0  0  0  0  0  0  0  0  0  0  0  0
   24.6335    5.3786   30.9928 C   0  0  0  0  0  0  0  0  0  0  0  0
   24.8372    6.7605   30.9570 C   0  0  0  0  0  0  0  0  0  0  0  0
   21.4342   10.5495   30.6049 C   0  0  0  0  0  0  0  0  0  0  0  0
   20.0427   10.4982   30.5007 C   0  0  0  0  0  0  0  0  0  0  0  0
   19.3750    9.2670   30.4369 C   0  0  0  0  0  0  0  0  0  0  0  0
   20.0876    8.0670   30.4920 C   0  0  0  0  0  0  0  0  0  0  0  0
   23.5494   10.1689   32.9732 O   0  0  0  0  0  0  0  0  0  0  0  0
   25.6252    9.8682   32.1122 N   0  0  0  0  0  0  0  0  0  0  0  0
   26.2690   10.2963   33.3570 C   0  0  0  0  0  0  0  0  0  0  0  0
   32.0671   12.8393   24.3492 C   0  0  0  0  0  0  0  0  0  0  0  0
   32.6957   13.7548   23.3591 C   0  0  0  0  0  0  0  0  0  0  0  0
   32.7646   12.0898   25.0230 O   0  0  0  0  0  0  0  0  0  0  0  0
   32.2239   13.9012   22.0356 C   0  0  0  0  0  0  0  0  0  0  0  0
   32.8823   14.8305   21.2058 C   0  0  0  0  0  0  0  0  0  0  0  0
   33.9762   15.5696   21.6647 C   0  0  0  0  0  0  0  0  0  0  0  0
   34.4444   15.3914   22.9626 C   0  0  0  0  0  0  0  0  0  0  0  0
   33.8091   14.4837   23.8076 C   0  0  0  0  0  0  0  0  0  0  0  0
   31.1203   13.1020   21.4750 C   0  0  0  0  0  0  0  0  0  0  0  0
   29.9401   13.7152   21.0266 C   0  0  0  0  0  0  0  0  0  0  0  0
   28.8817   12.9533   20.5210 C   0  0  0  0  0  0  0  0  0  0  0  0
   28.9828   11.5570   20.4397 C   0  0  0  0  0  0  0  0  0  0  0  0
   30.1618   10.9405   20.8789 C   0  0  0  0  0  0  0  0  0  0  0  0
   31.2182   11.7047   21.3839 C   0  0  0  0  0  0  0  0  0  0  0  0
   27.8272   10.7303   19.9322 C   0  0  0  0  0  0  0  0  0  0  0  0
   26.5301    9.1728   34.3634 C   0  0  0  0  0  0  0  0  0  0  0  0
   27.3357    8.2351   33.8063 F   0  0  0  0  0  0  0  0  0  0  0  0
   25.4066    8.5558   34.7716 F   0  0  0  0  0  0  0  0  0  0  0  0
   27.1665    9.6484   35.4577 F   0  0  0  0  0  0  0  0  0  0  0  0
   26.9734   10.3741   20.9309 F   0  0  0  0  0  0  0  0  0  0  0  0
   28.2186    9.5676   19.3394 F   0  0  0  0  0  0  0  0  0  0  0  0
   27.0693   11.3827   19.0071 F   0  0  0  0  0  0  0  0  0  0  0  0
   28.0368   10.2214   26.1585 H   0  0  0  0  0  0  0  0  0  0  0  0
   26.6492   11.1821   25.6392 H   0  0  0  0  0  0  0  0  0  0  0  0
   28.5010   11.3860   24.0390 H   0  0  0  0  0  0  0  0  0  0  0  0
   28.0486   12.9356   24.7341 H   0  0  0  0  0  0  0  0  0  0  0  0
   30.4273   11.1841   25.5395 H   0  0  0  0  0  0  0  0  0  0  0  0
   29.6138   13.8868   26.7208 H   0  0  0  0  0  0  0  0  0  0  0  0
   30.9854   12.8989   27.2016 H   0  0  0  0  0  0  0  0  0  0  0  0
   29.5023   11.1077   28.0123 H   0  0  0  0  0  0  0  0  0  0  0  0
   29.0830   12.6584   28.7495 H   0  0  0  0  0  0  0  0  0  0  0  0
   30.2248   13.6918   23.9887 H   0  0  0  0  0  0  0  0  0  0  0  0
   27.1105   10.2924   28.4532 H   0  0  0  0  0  0  0  0  0  0  0  0
   27.0145   11.8415   29.2887 H   0  0  0  0  0  0  0  0  0  0  0  0
   25.1302   12.5362   27.7531 H   0  0  0  0  0  0  0  0  0  0  0  0
   25.0701   10.8866   27.1322 H   0  0  0  0  0  0  0  0  0  0  0  0
   24.7427   11.6458   30.0770 H   0  0  0  0  0  0  0  0  0  0  0  0
   23.4248   11.4342   28.9296 H   0  0  0  0  0  0  0  0  0  0  0  0
   25.4363    9.2105   29.4685 H   0  0  0  0  0  0  0  0  0  0  0  0
   23.9462    9.0981   28.5706 H   0  0  0  0  0  0  0  0  0  0  0  0
   21.2373    5.2491   30.6710 H   0  0  0  0  0  0  0  0  0  0  0  0
   23.2054    3.7615   30.9215 H   0  0  0  0  0  0  0  0  0  0  0  0
   25.4839    4.7097   31.1065 H   0  0  0  0  0  0  0  0  0  0  0  0
   25.8456    7.1490   31.0352 H   0  0  0  0  0  0  0  0  0  0  0  0
   21.9342   11.5086   30.6918 H   0  0  0  0  0  0  0  0  0  0  0  0
   19.4699   11.4224   30.4833 H   0  0  0  0  0  0  0  0  0  0  0  0
   18.2903    9.2473   30.3624 H   0  0  0  0  0  0  0  0  0  0  0  0
   19.5595    7.1200   30.4656 H   0  0  0  0  0  0  0  0  0  0  0  0
   26.1867    9.3377   31.4604 H   0  0  0  0  0  0  0  0  0  0  0  0
   27.2236   10.7476   33.0680 H   0  0  0  0  0  0  0  0  0  0  0  0
   25.6629   11.0778   33.8276 H   0  0  0  0  0  0  0  0  0  0  0  0
   32.5581   14.9655   20.1748 H   0  0  0  0  0  0  0  0  0  0  0  0
   34.4724   16.2732   21.0001 H   0  0  0  0  0  0  0  0  0  0  0  0
   35.3048   15.9541   23.3153 H   0  0  0  0  0  0  0  0  0  0  0  0
   34.1768   14.3439   24.8223 H   0  0  0  0  0  0  0  0  0  0  0  0
   29.8304   14.7972   21.0816 H   0  0  0  0  0  0  0  0  0  0  0  0
   27.9732   13.4563   20.1918 H   0  0  0  0  0  0  0  0  0  0  0  0
   30.2667    9.8572   20.8344 H   0  0  0  0  0  0  0  0  0  0  0  0
   32.1219   11.1970   21.7196 H   0  0  0  0  0  0  0  0  0  0  0  0
  1  8  1  0
  8  9  1  0
  9 10  1  0
 10 11  1  0
 11 12  1  0
 12 13  1  0
 12 14  1  0
 14 15  2  0
 15 16  1  0
 16 17  1  0
 17 12  1  0
 16 18  2  0
 18 19  1  0
 19 20  2  0
 20 21  1  0
 21 17  2  0
 14 22  1  0
 22 23  2  0
 23 24  1  0
 24 25  2  0
 25 15  1  0
 13 26  2  0
 13 27  1  0
 27 28  1  0
  7 29  1  0
 29 30  1  0
 29 31  2  0
 30 32  1  0
 32 33  2  0
 33 34  1  0
 34 35  2  0
 35 36  1  0
 36 30  2  0
 32 37  1  0
 37 38  2  0
 38 39  1  0
 39 40  2  0
 40 41  1  0
 41 42  2  0
 42 37  1  0
 40 43  1  0
 28 44  1  0
  1  2  1  0
  2  3  1  0
 44 45  1  0
  3  4  1  0
 44 46  1  0
  4  5  1  0
 44 47  1  0
  5  6  1  0
 43 48  1  0
  6  1  1  0
 43 49  1  0
  4  7  1  0
 43 50  1  0
  2 51  1  0
  2 52  1  0
  3 53  1  0
  3 54  1  0
  4 55  1  0
  5 56  1  0
  5 57  1  0
  6 58  1  0
  6 59  1  0
  7 60  1  0
  8 61  1  0
  8 62  1  0
  9 63  1  0
  9 64  1  0
 10 65  1  0
 10 66  1  0
 11 67  1  0
 11 68  1  0
 18 69  1  0
 19 70  1  0
 20 71  1  0
 21 72  1  0
 22 73  1  0
 23 74  1  0
 24 75  1  0
 25 76  1  0
 27 77  1  0
 28 78  1  0
 28 79  1  0
 33 80  1  0
 34 81  1  0
 35 82  1  0
 36 83  1  0
 38 84  1  0
 39 85  1  0
 41 86  1  0
 42 87  1  0
M  END
> <Uni-Dock RESULT> 
ENERGY=   -4.951  LOWER_BOUND=    1.358  UPPER_BOUND=    1.691
INTER + INTRA:          -4.951
INTER:                  -4.951
INTRA:                   0.000
UNBOUND:                 0.000

$$$$

     RDKit          3D

 87 92  0  0  0  0  0  0  0  0999 V2000
   30.9840   10.7776   28.4699 N   0  0  0  0  0  0  0  0  0  0  0  0
   30.8598   10.4677   27.0367 C   0  0  0  0  0  0  0  0  0  0  0  0
   31.1493   11.7004   26.1819 C   0  0  0  0  0  0  0  0  0  0  0  0
   32.5310   12.2736   26.4890 C   0  0  0  0  0  0  0  0  0  0  0  0
   32.6844   12.5133   27.9902 C   0  0  0  0  0  0  0  0  0  0  0  0
   32.3444   11.2517   28.7800 C   0  0  0  0  0  0  0  0  0  0  0  0
   32.7480   13.5017   25.7394 N   0  0  0  0  0  0  0  0  0  0  0  0
   30.6417    9.6248   29.3213 C   0  0  0  0  0  0  0  0  0  0  0  0
   29.1421    9.2917   29.2867 C   0  0  0  0  0  0  0  0  0  0  0  0
   28.7204    8.2906   30.3718 C   0  0  0  0  0  0  0  0  0  0  0  0
   29.2142    6.8625   30.1003 C   0  0  0  0  0  0  0  0  0  0  0  0
   28.9968    5.8419   31.2549 C   0  0  0  0  0  0  0  0  0  0  0  0
   29.6622    6.2596   32.5987 C   0  0  0  0  0  0  0  0  0  0  0  0
   27.5009    5.5112   31.4440 C   0  0  0  0  0  0  0  0  0  0  0  0
   27.2420    4.1714   31.0853 C   0  0  0  0  0  0  0  0  0  0  0  0
   28.4787    3.5354   30.6933 C   0  0  0  0  0  0  0  0  0  0  0  0
   29.5368    4.4654   30.7946 C   0  0  0  0  0  0  0  0  0  0  0  0
   28.7148    2.2332   30.2793 C   0  0  0  0  0  0  0  0  0  0  0  0
   30.0225    1.8574   29.9659 C   0  0  0  0  0  0  0  0  0  0  0  0
   31.0747    2.7792   30.0650 C   0  0  0  0  0  0  0  0  0  0  0  0
   30.8384    4.0933   30.4767 C   0  0  0  0  0  0  0  0  0  0  0  0
   26.4812    6.3204   31.9315 C   0  0  0  0  0  0  0  0  0  0  0  0
   25.1900    5.7954   32.0145 C   0  0  0  0  0  0  0  0  0  0  0  0
   24.9291    4.4733   31.6277 C   0  0  0  0  0  0  0  0  0  0  0  0
   25.9589    3.6501   31.1664 C   0  0  0  0  0  0  0  0  0  0  0  0
   29.1371    6.1070   33.7003 O   0  0  0  0  0  0  0  0  0  0  0  0
   30.9211    6.8318   32.5033 N   0  0  0  0  0  0  0  0  0  0  0  0
   31.6979    7.1080   33.7148 C   0  0  0  0  0  0  0  0  0  0  0  0
   34.0058   13.9463   25.3999 C   0  0  0  0  0  0  0  0  0  0  0  0
   34.0606   15.2608   24.7053 C   0  0  0  0  0  0  0  0  0  0  0  0
   35.0420   13.3497   25.6697 O   0  0  0  0  0  0  0  0  0  0  0  0
   33.2499   15.5802   23.5933 C   0  0  0  0  0  0  0  0  0  0  0  0
   33.3682   16.8742   23.0481 C   0  0  0  0  0  0  0  0  0  0  0  0
   34.2683   17.8060   23.5725 C   0  0  0  0  0  0  0  0  0  0  0  0
   35.0788   17.4639   24.6503 C   0  0  0  0  0  0  0  0  0  0  0  0
   34.9791   16.1935   25.2138 C   0  0  0  0  0  0  0  0  0  0  0  0
   32.3334   14.6192   22.9552 C   0  0  0  0  0  0  0  0  0  0  0  0
   30.9506   14.8568   22.9164 C   0  0  0  0  0  0  0  0  0  0  0  0
   30.0783   13.9303   22.3357 C   0  0  0  0  0  0  0  0  0  0  0  0
   30.5700   12.7466   21.7671 C   0  0  0  0  0  0  0  0  0  0  0  0
   31.9503   12.5081   21.7964 C   0  0  0  0  0  0  0  0  0  0  0  0
   32.8199   13.4360   22.3775 C   0  0  0  0  0  0  0  0  0  0  0  0
   29.6272   11.7276   21.1763 C   0  0  0  0  0  0  0  0  0  0  0  0
   32.5283    5.9285   34.2270 C   0  0  0  0  0  0  0  0  0  0  0  0
   33.4110    5.5399   33.2740 F   0  0  0  0  0  0  0  0  0  0  0  0
   31.7822    4.8579   34.5539 F   0  0  0  0  0  0  0  0  0  0  0  0
   33.2462    6.2853   35.3160 F   0  0  0  0  0  0  0  0  0  0  0  0
   29.1994   10.8263   22.1025 F   0  0  0  0  0  0  0  0  0  0  0  0
   30.1874   10.9972   20.1716 F   0  0  0  0  0  0  0  0  0  0  0  0
   28.5014   12.2842   20.6483 F   0  0  0  0  0  0  0  0  0  0  0  0
   31.5377    9.6514   26.7538 H   0  0  0  0  0  0  0  0  0  0  0  0
   29.8420   10.1419   26.7977 H   0  0  0  0  0  0  0  0  0  0  0  0
   31.0826   11.4360   25.1191 H   0  0  0  0  0  0  0  0  0  0  0  0
   30.3759   12.4605   26.3601 H   0  0  0  0  0  0  0  0  0  0  0  0
   33.2929   11.5496   26.1701 H   0  0  0  0  0  0  0  0  0  0  0  0
   32.0301   13.3361   28.3092 H   0  0  0  0  0  0  0  0  0  0  0  0
   33.7095   12.8260   28.2224 H   0  0  0  0  0  0  0  0  0  0  0  0
   33.0862   10.4691   28.5713 H   0  0  0  0  0  0  0  0  0  0  0  0
   32.4202   11.4952   29.8471 H   0  0  0  0  0  0  0  0  0  0  0  0
   31.9641   14.1312   25.6187 H   0  0  0  0  0  0  0  0  0  0  0  0
   31.2408    8.7503   29.0404 H   0  0  0  0  0  0  0  0  0  0  0  0
   30.8975    9.8660   30.3610 H   0  0  0  0  0  0  0  0  0  0  0  0
   28.5692   10.2160   29.4404 H   0  0  0  0  0  0  0  0  0  0  0  0
   28.8529    8.8952   28.3068 H   0  0  0  0  0  0  0  0  0  0  0  0
   29.0639    8.6476   31.3481 H   0  0  0  0  0  0  0  0  0  0  0  0
   27.6264    8.2916   30.3969 H   0  0  0  0  0  0  0  0  0  0  0  0
   30.2801    6.8991   29.8496 H   0  0  0  0  0  0  0  0  0  0  0  0
   28.7171    6.5004   29.1886 H   0  0  0  0  0  0  0  0  0  0  0  0
   27.9076    1.5125   30.2032 H   0  0  0  0  0  0  0  0  0  0  0  0
   30.2280    0.8380   29.6467 H   0  0  0  0  0  0  0  0  0  0  0  0
   32.0865    2.4631   29.8206 H   0  0  0  0  0  0  0  0  0  0  0  0
   31.6694    4.7858   30.5395 H   0  0  0  0  0  0  0  0  0  0  0  0
   26.6753    7.3328   32.2702 H   0  0  0  0  0  0  0  0  0  0  0  0
   24.3811    6.4138   32.3964 H   0  0  0  0  0  0  0  0  0  0  0  0
   23.9182    4.0802   31.7056 H   0  0  0  0  0  0  0  0  0  0  0  0
   25.7505    2.6217   30.8920 H   0  0  0  0  0  0  0  0  0  0  0  0
   31.4331    6.7424   31.6365 H   0  0  0  0  0  0  0  0  0  0  0  0
   32.3682    7.9369   33.4658 H   0  0  0  0  0  0  0  0  0  0  0  0
   31.0238    7.4541   34.5056 H   0  0  0  0  0  0  0  0  0  0  0  0
   32.7703   17.1576   22.1830 H   0  0  0  0  0  0  0  0  0  0  0  0
   34.3467   18.7948   23.1264 H   0  0  0  0  0  0  0  0  0  0  0  0
   35.7904   18.1825   25.0488 H   0  0  0  0  0  0  0  0  0  0  0  0
   35.6145   15.9263   26.0560 H   0  0  0  0  0  0  0  0  0  0  0  0
   30.5387   15.7648   23.3541 H   0  0  0  0  0  0  0  0  0  0  0  0
   29.0086   14.1364   22.3313 H   0  0  0  0  0  0  0  0  0  0  0  0
   32.3608   11.5943   21.3687 H   0  0  0  0  0  0  0  0  0  0  0  0
   33.8883   13.2222   22.3871 H   0  0  0  0  0  0  0  0  0  0  0  0
  1  8  1  0
  8  9  1  0
  9 10  1  0
 10 11  1  0
 11 12  1  0
 12 13  1  0
 12 14  1  0
 14 15  2  0
 15 16  1  0
 16 17  1  0
 17 12  1  0
 16 18  2  0
 18 19  1  0
 19 20  2  0
 20 21  1  0
 21 17  2  0
 14 22  1  0
 22 23  2  0
 23 24  1  0
 24 25  2  0
 25 15  1  0
 13 26  2  0
 13 27  1  0
 27 28  1  0
  7 29  1  0
 29 30  1  0
 29 31  2  0
 30 32  1  0
 32 33  2  0
 33 34  1  0
 34 35  2  0
 35 36  1  0
 36 30  2  0
 32 37  1  0
 37 38  2  0
 38 39  1  0
 39 40  2  0
 40 41  1  0
 41 42  2  0
 42 37  1  0
 40 43  1  0
 28 44  1  0
  1  2  1  0
  2  3  1  0
 44 45  1  0
  3  4  1  0
 44 46  1  0
  4  5  1  0
 44 47  1  0
  5  6  1  0
 43 48  1  0
  6  1  1  0
 43 49  1  0
  4  7  1  0
 43 50  1  0
  2 51  1  0
  2 52  1  0
  3 53  1  0
  3 54  1  0
  4 55  1  0
  5 56  1  0
  5 57  1  0
  6 58  1  0
  6 59  1  0
  7 60  1  0
  8 61  1  0
  8 62  1  0
  9 63  1  0
  9 64  1  0
 10 65  1  0
 10 66  1  0
 11 67  1  0
 11 68  1  0
 18 69  1  0
 19 70  1  0
 20 71  1  0
 21 72  1  0
 22 73  1  0
 23 74  1  0
 24 75  1  0
 25 76  1  0
 27 77  1  0
 28 78  1  0
 28 79  1  0
 33 80  1  0
 34 81  1  0
 35 82  1  0
 36 83  1  0
 38 84  1  0
 39 85  1  0
 41 86  1  0
 42 87  1  0
M  END
> <Uni-Dock RESULT> 
ENERGY=   -4.299  LOWER_BOUND=    3.656  UPPER_BOUND=    4.682
INTER + INTRA:          -4.299
INTER:                  -4.299
INTRA:                   0.000
UNBOUND:                 0.000

$$$$

     RDKit          3D

 87 92  0  0  0  0  0  0  0  0999 V2000
   30.8771   11.8125   27.1757 N   0  0  0  0  0  0  0  0  0  0  0  0
   31.3041   11.5292   25.7961 C   0  0  0  0  0  0  0  0  0  0  0  0
   30.1518   11.7300   24.8132 C   0  0  0  0  0  0  0  0  0  0  0  0
   29.5761   13.1405   24.9176 C   0  0  0  0  0  0  0  0  0  0  0  0
   29.2138   13.4598   26.3672 C   0  0  0  0  0  0  0  0  0  0  0  0
   30.3995   13.2015   27.2937 C   0  0  0  0  0  0  0  0  0  0  0  0
   28.4185   13.2807   24.0472 N   0  0  0  0  0  0  0  0  0  0  0  0
   31.9492   11.5593   28.1542 C   0  0  0  0  0  0  0  0  0  0  0  0
   32.2611   10.0631   28.3122 C   0  0  0  0  0  0  0  0  0  0  0  0
   33.1613    9.7576   29.5180 C   0  0  0  0  0  0  0  0  0  0  0  0
   34.6144   10.2100   29.3164 C   0  0  0  0  0  0  0  0  0  0  0  0
   35.5313   10.1152   30.5703 C   0  0  0  0  0  0  0  0  0  0  0  0
   35.0127   10.9272   31.7930 C   0  0  0  0  0  0  0  0  0  0  0  0
   35.8222    8.6473   30.9493 C   0  0  0  0  0  0  0  0  0  0  0  0
   37.1833    8.3425   30.7362 C   0  0  0  0  0  0  0  0  0  0  0  0
   37.8686    9.5246   30.2667 C   0  0  0  0  0  0  0  0  0  0  0  0
   36.9496   10.5930   30.1723 C   0  0  0  0  0  0  0  0  0  0  0  0
   39.2043    9.7059   29.9415 C   0  0  0  0  0  0  0  0  0  0  0  0
   39.6250   10.9688   29.5201 C   0  0  0  0  0  0  0  0  0  0  0  0
   38.7142   12.0310   29.4248 C   0  0  0  0  0  0  0  0  0  0  0  0
   37.3668   11.8493   29.7467 C   0  0  0  0  0  0  0  0  0  0  0  0
   34.9596    7.6924   31.4749 C   0  0  0  0  0  0  0  0  0  0  0  0
   35.4560    6.4151   31.7429 C   0  0  0  0  0  0  0  0  0  0  0  0
   36.8017    6.1053   31.5006 C   0  0  0  0  0  0  0  0  0  0  0  0
   37.6763    7.0730   31.0010 C   0  0  0  0  0  0  0  0  0  0  0  0
   35.0645   10.5258   32.9543 O   0  0  0  0  0  0  0  0  0  0  0  0
   34.4698   12.1712   31.5122 N   0  0  0  0  0  0  0  0  0  0  0  0
   34.1049   13.0785   32.6036 C   0  0  0  0  0  0  0  0  0  0  0  0
   28.0232   14.4961   23.5356 C   0  0  0  0  0  0  0  0  0  0  0  0
   26.7724   14.4818   22.7300 C   0  0  0  0  0  0  0  0  0  0  0  0
   28.6108   15.5522   23.7402 O   0  0  0  0  0  0  0  0  0  0  0  0
   26.5350   13.5553   21.6903 C   0  0  0  0  0  0  0  0  0  0  0  0
   25.2932   13.6205   21.0275 C   0  0  0  0  0  0  0  0  0  0  0  0
   24.3346   14.5784   21.3693 C   0  0  0  0  0  0  0  0  0  0  0  0
   24.5975   15.5008   22.3771 C   0  0  0  0  0  0  0  0  0  0  0  0
   25.8146   15.4562   23.0540 C   0  0  0  0  0  0  0  0  0  0  0  0
   27.5320   12.5683   21.2402 C   0  0  0  0  0  0  0  0  0  0  0  0
   27.2775   11.1911   21.3328 C   0  0  0  0  0  0  0  0  0  0  0  0
   28.2359   10.2547   20.9318 C   0  0  0  0  0  0  0  0  0  0  0  0
   29.4705   10.6736   20.4154 C   0  0  0  0  0  0  0  0  0  0  0  0
   29.7266   12.0473   20.3138 C   0  0  0  0  0  0  0  0  0  0  0  0
   28.7668   12.9812   20.7154 C   0  0  0  0  0  0  0  0  0  0  0  0
   30.5209    9.6654   20.0199 C   0  0  0  0  0  0  0  0  0  0  0  0
   35.2499   13.9533   33.1203 C   0  0  0  0  0  0  0  0  0  0  0  0
   35.7304   14.7232   32.1129 F   0  0  0  0  0  0  0  0  0  0  0  0
   36.2779   13.2415   33.6165 F   0  0  0  0  0  0  0  0  0  0  0  0
   34.8141   14.7889   34.0900 F   0  0  0  0  0  0  0  0  0  0  0  0
   31.3348    9.3370   21.0606 F   0  0  0  0  0  0  0  0  0  0  0  0
   31.3413   10.1070   19.0257 F   0  0  0  0  0  0  0  0  0  0  0  0
   29.9933    8.4916   19.5729 F   0  0  0  0  0  0  0  0  0  0  0  0
   32.1514   12.1669   25.5112 H   0  0  0  0  0  0  0  0  0  0  0  0
   31.6332   10.4893   25.6984 H   0  0  0  0  0  0  0  0  0  0  0  0
   30.5033   11.5449   23.7905 H   0  0  0  0  0  0  0  0  0  0  0  0
   29.3678   10.9855   25.0097 H   0  0  0  0  0  0  0  0  0  0  0  0
   30.3358   13.8582   24.5799 H   0  0  0  0  0  0  0  0  0  0  0  0
   28.3573   12.8496   26.6848 H   0  0  0  0  0  0  0  0  0  0  0  0
   28.8984   14.5062   26.4585 H   0  0  0  0  0  0  0  0  0  0  0  0
   31.2081   13.9111   27.0724 H   0  0  0  0  0  0  0  0  0  0  0  0
   30.0687   13.3959   28.3216 H   0  0  0  0  0  0  0  0  0  0  0  0
   27.7895   12.4921   23.9599 H   0  0  0  0  0  0  0  0  0  0  0  0
   32.8532   12.1186   27.8847 H   0  0  0  0  0  0  0  0  0  0  0  0
   31.6256   11.9296   29.1354 H   0  0  0  0  0  0  0  0  0  0  0  0
   31.3186    9.5161   28.4486 H   0  0  0  0  0  0  0  0  0  0  0  0
   32.7339    9.6652   27.4070 H   0  0  0  0  0  0  0  0  0  0  0  0
   32.7290   10.2088   30.4170 H   0  0  0  0  0  0  0  0  0  0  0  0
   33.1415    8.6730   29.6624 H   0  0  0  0  0  0  0  0  0  0  0  0
   34.6153   11.2420   28.9484 H   0  0  0  0  0  0  0  0  0  0  0  0
   35.0440    9.6133   28.4986 H   0  0  0  0  0  0  0  0  0  0  0  0
   39.9165    8.8909   30.0157 H   0  0  0  0  0  0  0  0  0  0  0  0
   40.6705   11.1318   29.2680 H   0  0  0  0  0  0  0  0  0  0  0  0
   39.0651   13.0078   29.0989 H   0  0  0  0  0  0  0  0  0  0  0  0
   36.6842   12.6863   29.6593 H   0  0  0  0  0  0  0  0  0  0  0  0
   33.9254    7.9286   31.7031 H   0  0  0  0  0  0  0  0  0  0  0  0
   34.7956    5.6570   32.1571 H   0  0  0  0  0  0  0  0  0  0  0  0
   37.1715    5.1068   31.7217 H   0  0  0  0  0  0  0  0  0  0  0  0
   38.7208    6.8296   30.8394 H   0  0  0  0  0  0  0  0  0  0  0  0
   34.6392   12.5840   30.6053 H   0  0  0  0  0  0  0  0  0  0  0  0
   33.3101   13.7221   32.2133 H   0  0  0  0  0  0  0  0  0  0  0  0
   33.6836   12.4978   33.4312 H   0  0  0  0  0  0  0  0  0  0  0  0
   25.0742   12.9325   20.2120 H   0  0  0  0  0  0  0  0  0  0  0  0
   23.3879   14.6130   20.8349 H   0  0  0  0  0  0  0  0  0  0  0  0
   23.8590   16.2562   22.6329 H   0  0  0  0  0  0  0  0  0  0  0  0
   26.0199   16.1790   23.8413 H   0  0  0  0  0  0  0  0  0  0  0  0
   26.3298   10.8355   21.7342 H   0  0  0  0  0  0  0  0  0  0  0  0
   28.0147    9.1922   21.0269 H   0  0  0  0  0  0  0  0  0  0  0  0
   30.6792   12.4027   19.9229 H   0  0  0  0  0  0  0  0  0  0  0  0
   28.9953   14.0428   20.6262 H   0  0  0  0  0  0  0  0  0  0  0  0
  1  8  1  0
  8  9  1  0
  9 10  1  0
 10 11  1  0
 11 12  1  0
 12 13  1  0
 12 14  1  0
 14 15  2  0
 15 16  1  0
 16 17  1  0
 17 12  1  0
 16 18  2  0
 18 19  1  0
 19 20  2  0
 20 21  1  0
 21 17  2  0
 14 22  1  0
 22 23  2  0
 23 24  1  0
 24 25  2  0
 25 15  1  0
 13 26  2  0
 13 27  1  0
 27 28  1  0
  7 29  1  0
 29 30  1  0
 29 31  2  0
 30 32  1  0
 32 33  2  0
 33 34  1  0
 34 35  2  0
 35 36  1  0
 36 30  2  0
 32 37  1  0
 37 38  2  0
 38 39  1  0
 39 40  2  0
 40 41  1  0
 41 42  2  0
 42 37  1  0
 40 43  1  0
 28 44  1  0
  1  2  1  0
  2  3  1  0
 44 45  1  0
  3  4  1  0
 44 46  1  0
  4  5  1  0
 44 47  1  0
  5  6  1  0
 43 48  1  0
  6  1  1  0
 43 49  1  0
  4  7  1  0
 43 50  1  0
  2 51  1  0
  2 52  1  0
  3 53  1  0
  3 54  1  0
  4 55  1  0
  5 56  1  0
  5 57  1  0
  6 58  1  0
  6 59  1  0
  7 60  1  0
  8 61  1  0
  8 62  1  0
  9 63  1  0
  9 64  1  0
 10 65  1  0
 10 66  1  0
 11 67  1  0
 11 68  1  0
 18 69  1  0
 19 70  1  0
 20 71  1  0
 21 72  1  0
 22 73  1  0
 23 74  1  0
 24 75  1  0
 25 76  1  0
 27 77  1  0
 28 78  1  0
 28 79  1  0
 33 80  1  0
 34 81  1  0
 35 82  1  0
 36 83  1  0
 38 84  1  0
 39 85  1  0
 41 86  1  0
 42 87  1  0
M  END
> <Uni-Dock RESULT> 
ENERGY=   -4.200  LOWER_BOUND=    7.003  UPPER_BOUND=    9.343
INTER + INTRA:          -4.200
INTER:                  -4.200
INTRA:                   0.000
UNBOUND:                 0.000

$$$$

     RDKit          3D

 87 92  0  0  0  0  0  0  0  0999 V2000
   26.7836   12.1751   26.5302 N   0  0  0  0  0  0  0  0  0  0  0  0
   28.1789   12.0829   26.9888 C   0  0  0  0  0  0  0  0  0  0  0  0
   29.1466   12.5292   25.8940 C   0  0  0  0  0  0  0  0  0  0  0  0
   28.8300   13.9461   25.4208 C   0  0  0  0  0  0  0  0  0  0  0  0
   27.3580   14.0575   25.0267 C   0  0  0  0  0  0  0  0  0  0  0  0
   26.4544   13.5609   26.1528 C   0  0  0  0  0  0  0  0  0  0  0  0
   29.6966   14.3153   24.3119 N   0  0  0  0  0  0  0  0  0  0  0  0
   25.8309   11.6843   27.5414 C   0  0  0  0  0  0  0  0  0  0  0  0
   25.9097   10.1620   27.7350 C   0  0  0  0  0  0  0  0  0  0  0  0
   24.7459    9.5972   28.5621 C   0  0  0  0  0  0  0  0  0  0  0  0
   24.8324    9.9589   30.0516 C   0  0  0  0  0  0  0  0  0  0  0  0
   23.5865    9.5923   30.9091 C   0  0  0  0  0  0  0  0  0  0  0  0
   22.2625   10.2371   30.4047 C   0  0  0  0  0  0  0  0  0  0  0  0
   23.4433    8.0643   31.0752 C   0  0  0  0  0  0  0  0  0  0  0  0
   23.6666    7.6902   32.4172 C   0  0  0  0  0  0  0  0  0  0  0  0
   23.9194    8.8739   33.2062 C   0  0  0  0  0  0  0  0  0  0  0  0
   23.8636   10.0132   32.3735 C   0  0  0  0  0  0  0  0  0  0  0  0
   24.1752    8.9980   34.5635 C   0  0  0  0  0  0  0  0  0  0  0  0
   24.3745   10.2745   35.0928 C   0  0  0  0  0  0  0  0  0  0  0  0
   24.3203   11.4073   34.2678 C   0  0  0  0  0  0  0  0  0  0  0  0
   24.0682   11.2842   32.8991 C   0  0  0  0  0  0  0  0  0  0  0  0
   23.1030    7.1093   30.1242 C   0  0  0  0  0  0  0  0  0  0  0  0
   23.0328    5.7702   30.5136 C   0  0  0  0  0  0  0  0  0  0  0  0
   23.2861    5.3971   31.8411 C   0  0  0  0  0  0  0  0  0  0  0  0
   23.5984    6.3596   32.8040 C   0  0  0  0  0  0  0  0  0  0  0  0
   21.1808    9.6524   30.3809 O   0  0  0  0  0  0  0  0  0  0  0  0
   22.3520   11.5492   29.9669 N   0  0  0  0  0  0  0  0  0  0  0  0
   21.1378   12.2964   29.6278 C   0  0  0  0  0  0  0  0  0  0  0  0
   30.0144   15.6244   24.0282 C   0  0  0  0  0  0  0  0  0  0  0  0
   30.8448   15.8386   22.8123 C   0  0  0  0  0  0  0  0  0  0  0  0
   29.6255   16.5841   24.6840 O   0  0  0  0  0  0  0  0  0  0  0  0
   32.0271   15.1120   22.5477 C   0  0  0  0  0  0  0  0  0  0  0  0
   32.7035   15.3809   21.3411 C   0  0  0  0  0  0  0  0  0  0  0  0
   32.2364   16.3450   20.4436 C   0  0  0  0  0  0  0  0  0  0  0  0
   31.0855   17.0706   20.7344 C   0  0  0  0  0  0  0  0  0  0  0  0
   30.3925   16.8217   21.9174 C   0  0  0  0  0  0  0  0  0  0  0  0
   32.6047   14.1335   23.4856 C   0  0  0  0  0  0  0  0  0  0  0  0
   32.7438   12.7839   23.1262 C   0  0  0  0  0  0  0  0  0  0  0  0
   33.2658   11.8504   24.0275 C   0  0  0  0  0  0  0  0  0  0  0  0
   33.6742   12.2469   25.3091 C   0  0  0  0  0  0  0  0  0  0  0  0
   33.5445   13.5944   25.6702 C   0  0  0  0  0  0  0  0  0  0  0  0
   33.0223   14.5254   24.7673 C   0  0  0  0  0  0  0  0  0  0  0  0
   34.1999   11.2346   26.2965 C   0  0  0  0  0  0  0  0  0  0  0  0
   20.4556   12.9835   30.8134 C   0  0  0  0  0  0  0  0  0  0  0  0
   21.3114   13.8639   31.3888 F   0  0  0  0  0  0  0  0  0  0  0  0
   20.0543   12.1221   31.7655 F   0  0  0  0  0  0  0  0  0  0  0  0
   19.3750   13.6854   30.4032 F   0  0  0  0  0  0  0  0  0  0  0  0
   33.2050   10.6804   27.0424 F   0  0  0  0  0  0  0  0  0  0  0  0
   35.0870   11.7628   27.1858 F   0  0  0  0  0  0  0  0  0  0  0  0
   34.8455   10.1930   25.7012 F   0  0  0  0  0  0  0  0  0  0  0  0
   28.3338   12.6885   27.8916 H   0  0  0  0  0  0  0  0  0  0  0  0
   28.4353   11.0492   27.2434 H   0  0  0  0  0  0  0  0  0  0  0  0
   30.1761   12.4826   26.2706 H   0  0  0  0  0  0  0  0  0  0  0  0
   29.0946   11.8276   25.0498 H   0  0  0  0  0  0  0  0  0  0  0  0
   29.0262   14.6459   26.2443 H   0  0  0  0  0  0  0  0  0  0  0  0
   27.1667   13.4744   24.1155 H   0  0  0  0  0  0  0  0  0  0  0  0
   27.1064   15.0975   24.7865 H   0  0  0  0  0  0  0  0  0  0  0  0
   26.5358   14.2302   27.0198 H   0  0  0  0  0  0  0  0  0  0  0  0
   25.4178   13.6142   25.7972 H   0  0  0  0  0  0  0  0  0  0  0  0
   29.9276   13.6034   23.6300 H   0  0  0  0  0  0  0  0  0  0  0  0
   25.9817   12.2058   28.4943 H   0  0  0  0  0  0  0  0  0  0  0  0
   24.8115   11.9175   27.2080 H   0  0  0  0  0  0  0  0  0  0  0  0
   25.8891    9.6770   26.7500 H   0  0  0  0  0  0  0  0  0  0  0  0
   26.8545    9.8777   28.2122 H   0  0  0  0  0  0  0  0  0  0  0  0
   23.7974    9.9318   28.1297 H   0  0  0  0  0  0  0  0  0  0  0  0
   24.7801    8.5085   28.4563 H   0  0  0  0  0  0  0  0  0  0  0  0
   25.0278   11.0331   30.1434 H   0  0  0  0  0  0  0  0  0  0  0  0
   25.7245    9.4683   30.4675 H   0  0  0  0  0  0  0  0  0  0  0  0
   24.2153    8.1276   35.2098 H   0  0  0  0  0  0  0  0  0  0  0  0
   24.5687   10.3920   36.1566 H   0  0  0  0  0  0  0  0  0  0  0  0
   24.4737   12.3926   34.7027 H   0  0  0  0  0  0  0  0  0  0  0  0
   24.0368   12.1760   32.2844 H   0  0  0  0  0  0  0  0  0  0  0  0
   22.8672    7.3875   29.1022 H   0  0  0  0  0  0  0  0  0  0  0  0
   22.7650    5.0106   29.7830 H   0  0  0  0  0  0  0  0  0  0  0  0
   23.2203    4.3499   32.1268 H   0  0  0  0  0  0  0  0  0  0  0  0
   23.7694    6.0628   33.8330 H   0  0  0  0  0  0  0  0  0  0  0  0
   23.1749   12.0868   30.2019 H   0  0  0  0  0  0  0  0  0  0  0  0
   21.4395   13.0553   28.8989 H   0  0  0  0  0  0  0  0  0  0  0  0
   20.4271   11.6263   29.1325 H   0  0  0  0  0  0  0  0  0  0  0  0
   33.6254   14.8517   21.1039 H   0  0  0  0  0  0  0  0  0  0  0  0
   32.7832   16.5397   19.5238 H   0  0  0  0  0  0  0  0  0  0  0  0
   30.7303   17.8317   20.0446 H   0  0  0  0  0  0  0  0  0  0  0  0
   29.4932   17.3908   22.1448 H   0  0  0  0  0  0  0  0  0  0  0  0
   32.4310   12.4452   22.1397 H   0  0  0  0  0  0  0  0  0  0  0  0
   33.3504   10.8074   23.7245 H   0  0  0  0  0  0  0  0  0  0  0  0
   33.8469   13.9308   26.6611 H   0  0  0  0  0  0  0  0  0  0  0  0
   32.9318   15.5661   25.0772 H   0  0  0  0  0  0  0  0  0  0  0  0
  1  8  1  0
  8  9  1  0
  9 10  1  0
 10 11  1  0
 11 12  1  0
 12 13  1  0
 12 14  1  0
 14 15  2  0
 15 16  1  0
 16 17  1  0
 17 12  1  0
 16 18  2  0
 18 19  1  0
 19 20  2  0
 20 21  1  0
 21 17  2  0
 14 22  1  0
 22 23  2  0
 23 24  1  0
 24 25  2  0
 25 15  1  0
 13 26  2  0
 13 27  1  0
 27 28  1  0
  7 29  1  0
 29 30  1  0
 29 31  2  0
 30 32  1  0
 32 33  2  0
 33 34  1  0
 34 35  2  0
 35 36  1  0
 36 30  2  0
 32 37  1  0
 37 38  2  0
 38 39  1  0
 39 40  2  0
 40 41  1  0
 41 42  2  0
 42 37  1  0
 40 43  1  0
 28 44  1  0
  1  2  1  0
  2  3  1  0
 44 45  1  0
  3  4  1  0
 44 46  1  0
  4  5  1  0
 44 47  1  0
  5  6  1  0
 43 48  1  0
  6  1  1  0
 43 49  1  0
  4  7  1  0
 43 50  1  0
  2 51  1  0
  2 52  1  0
  3 53  1  0
  3 54  1  0
  4 55  1  0
  5 56  1  0
  5 57  1  0
  6 58  1  0
  6 59  1  0
  7 60  1  0
  8 61  1  0
  8 62  1  0
  9 63  1  0
  9 64  1  0
 10 65  1  0
 10 66  1  0
 11 67  1  0
 11 68  1  0
 18 69  1  0
 19 70  1  0
 20 71  1  0
 21 72  1  0
 22 73  1  0
 23 74  1  0
 24 75  1  0
 25 76  1  0
 27 77  1  0
 28 78  1  0
 28 79  1  0
 33 80  1  0
 34 81  1  0
 35 82  1  0
 36 83  1  0
 38 84  1  0
 39 85  1  0
 41 86  1  0
 42 87  1  0
M  END
> <Uni-Dock RESULT> 
ENERGY=   -4.193  LOWER_BOUND=    3.500  UPPER_BOUND=    4.673
INTER + INTRA:          -4.193
INTER:                  -4.193
INTRA:                   0.000
UNBOUND:                 0.000

$$$$

     RDKit          3D

 87 92  0  0  0  0  0  0  0  0999 V2000
   27.7830   11.2949   26.8584 N   0  0  0  0  0  0  0  0  0  0  0  0
   28.7592   10.3098   27.3509 C   0  0  0  0  0  0  0  0  0  0  0  0
   28.5880   10.0703   28.8500 C   0  0  0  0  0  0  0  0  0  0  0  0
   27.1646    9.6260   29.1795 C   0  0  0  0  0  0  0  0  0  0  0  0
   26.1526   10.6082   28.5916 C   0  0  0  0  0  0  0  0  0  0  0  0
   26.4077   10.8256   27.1021 C   0  0  0  0  0  0  0  0  0  0  0  0
   26.9939    9.4995   30.6189 N   0  0  0  0  0  0  0  0  0  0  0  0
   27.9702   11.5985   25.4288 C   0  0  0  0  0  0  0  0  0  0  0  0
   29.2566   12.3942   25.1591 C   0  0  0  0  0  0  0  0  0  0  0  0
   29.3277   12.9632   23.7348 C   0  0  0  0  0  0  0  0  0  0  0  0
   29.5705   11.8876   22.6665 C   0  0  0  0  0  0  0  0  0  0  0  0
   29.4528   12.3641   21.1896 C   0  0  0  0  0  0  0  0  0  0  0  0
   28.0718   12.9901   20.8376 C   0  0  0  0  0  0  0  0  0  0  0  0
   30.6144   13.3047   20.8039 C   0  0  0  0  0  0  0  0  0  0  0  0
   31.4555   12.6873   19.8541 C   0  0  0  0  0  0  0  0  0  0  0  0
   30.9264   11.3838   19.5248 C   0  0  0  0  0  0  0  0  0  0  0  0
   29.7451   11.1567   20.2649 C   0  0  0  0  0  0  0  0  0  0  0  0
   31.4032   10.4305   18.6379 C   0  0  0  0  0  0  0  0  0  0  0  0
   30.6899    9.2396   18.4883 C   0  0  0  0  0  0  0  0  0  0  0  0
   29.5172    9.0114   19.2226 C   0  0  0  0  0  0  0  0  0  0  0  0
   29.0378    9.9682   20.1209 C   0  0  0  0  0  0  0  0  0  0  0  0
   30.8666   14.6034   21.2307 C   0  0  0  0  0  0  0  0  0  0  0  0
   31.9926   15.2650   20.7367 C   0  0  0  0  0  0  0  0  0  0  0  0
   32.8446   14.6377   19.8168 C   0  0  0  0  0  0  0  0  0  0  0  0
   32.5752   13.3440   19.3643 C   0  0  0  0  0  0  0  0  0  0  0  0
   27.9306   13.9825   20.1251 O   0  0  0  0  0  0  0  0  0  0  0  0
   26.9617   12.3603   21.3783 N   0  0  0  0  0  0  0  0  0  0  0  0
   25.6137   12.7712   20.9763 C   0  0  0  0  0  0  0  0  0  0  0  0
   26.0595    8.6585   31.1799 C   0  0  0  0  0  0  0  0  0  0  0  0
   25.9551    8.7066   32.6633 C   0  0  0  0  0  0  0  0  0  0  0  0
   25.3131    7.9316   30.5343 O   0  0  0  0  0  0  0  0  0  0  0  0
   27.0766    8.6259   33.5186 C   0  0  0  0  0  0  0  0  0  0  0  0
   26.8491    8.7228   34.9058 C   0  0  0  0  0  0  0  0  0  0  0  0
   25.5598    8.8737   35.4237 C   0  0  0  0  0  0  0  0  0  0  0  0
   24.4646    8.9230   34.5672 C   0  0  0  0  0  0  0  0  0  0  0  0
   24.6599    8.8358   33.1903 C   0  0  0  0  0  0  0  0  0  0  0  0
   28.4500    8.3991   33.0358 C   0  0  0  0  0  0  0  0  0  0  0  0
   29.4583    9.3510   33.2535 C   0  0  0  0  0  0  0  0  0  0  0  0
   30.7549    9.1478   32.7700 C   0  0  0  0  0  0  0  0  0  0  0  0
   31.0789    7.9791   32.0660 C   0  0  0  0  0  0  0  0  0  0  0  0
   30.0780    7.0222   31.8526 C   0  0  0  0  0  0  0  0  0  0  0  0
   28.7827    7.2280   32.3370 C   0  0  0  0  0  0  0  0  0  0  0  0
   32.4663    7.7763   31.5090 C   0  0  0  0  0  0  0  0  0  0  0  0
   25.0891   12.0955   19.7069 C   0  0  0  0  0  0  0  0  0  0  0  0
   25.0546   10.7515   19.8825 F   0  0  0  0  0  0  0  0  0  0  0  0
   25.8446   12.3466   18.6224 F   0  0  0  0  0  0  0  0  0  0  0  0
   23.8261   12.4967   19.4378 F   0  0  0  0  0  0  0  0  0  0  0  0
   32.5948    8.2860   30.2532 F   0  0  0  0  0  0  0  0  0  0  0  0
   32.8226    6.4641   31.4205 F   0  0  0  0  0  0  0  0  0  0  0  0
   33.4350    8.3751   32.2566 F   0  0  0  0  0  0  0  0  0  0  0  0
   28.6620    9.3597   26.8089 H   0  0  0  0  0  0  0  0  0  0  0  0
   29.7824   10.6683   27.1968 H   0  0  0  0  0  0  0  0  0  0  0  0
   29.3038    9.3097   29.1859 H   0  0  0  0  0  0  0  0  0  0  0  0
   28.8342   10.9898   29.3991 H   0  0  0  0  0  0  0  0  0  0  0  0
   26.9914    8.6365   28.7353 H   0  0  0  0  0  0  0  0  0  0  0  0
   26.2098   11.5696   29.1201 H   0  0  0  0  0  0  0  0  0  0  0  0
   25.1317   10.2354   28.7381 H   0  0  0  0  0  0  0  0  0  0  0  0
   26.2097    9.8970   26.5498 H   0  0  0  0  0  0  0  0  0  0  0  0
   25.6895   11.5748   26.7462 H   0  0  0  0  0  0  0  0  0  0  0  0
   27.4538   10.1768   31.2148 H   0  0  0  0  0  0  0  0  0  0  0  0
   27.9522   10.6759   24.8361 H   0  0  0  0  0  0  0  0  0  0  0  0
   27.1288   12.2143   25.0860 H   0  0  0  0  0  0  0  0  0  0  0  0
   29.3068   13.2372   25.8612 H   0  0  0  0  0  0  0  0  0  0  0  0
   30.1432   11.7753   25.3383 H   0  0  0  0  0  0  0  0  0  0  0  0
   28.4145   13.5290   23.5241 H   0  0  0  0  0  0  0  0  0  0  0  0
   30.1576   13.6764   23.7187 H   0  0  0  0  0  0  0  0  0  0  0  0
   28.8721   11.0601   22.8334 H   0  0  0  0  0  0  0  0  0  0  0  0
   30.5689   11.4597   22.8383 H   0  0  0  0  0  0  0  0  0  0  0  0
   32.3075   10.6000   18.0630 H   0  0  0  0  0  0  0  0  0  0  0  0
   31.0445    8.4834   17.7914 H   0  0  0  0  0  0  0  0  0  0  0  0
   28.9747    8.0783   19.0863 H   0  0  0  0  0  0  0  0  0  0  0  0
   28.1318    9.7633   20.6788 H   0  0  0  0  0  0  0  0  0  0  0  0
   30.1955   15.1151   21.9127 H   0  0  0  0  0  0  0  0  0  0  0  0
   32.2031   16.2824   21.0578 H   0  0  0  0  0  0  0  0  0  0  0  0
   33.7132   15.1715   19.4384 H   0  0  0  0  0  0  0  0  0  0  0  0
   33.2277   12.8769   18.6347 H   0  0  0  0  0  0  0  0  0  0  0  0
   27.0665   11.4309   21.7614 H   0  0  0  0  0  0  0  0  0  0  0  0
   24.9552   12.5204   21.8141 H   0  0  0  0  0  0  0  0  0  0  0  0
   25.5894   13.8589   20.8508 H   0  0  0  0  0  0  0  0  0  0  0  0
   27.6847    8.6534   35.6010 H   0  0  0  0  0  0  0  0  0  0  0  0
   25.4113    8.9362   36.4993 H   0  0  0  0  0  0  0  0  0  0  0  0
   23.4600    9.0243   34.9697 H   0  0  0  0  0  0  0  0  0  0  0  0
   23.8025    8.8729   32.5211 H   0  0  0  0  0  0  0  0  0  0  0  0
   29.2357   10.2706   33.7926 H   0  0  0  0  0  0  0  0  0  0  0  0
   31.5136    9.9101   32.9438 H   0  0  0  0  0  0  0  0  0  0  0  0
   30.2982    6.1077   31.3033 H   0  0  0  0  0  0  0  0  0  0  0  0
   28.0249    6.4668   32.1539 H   0  0  0  0  0  0  0  0  0  0  0  0
  1  8  1  0
  8  9  1  0
  9 10  1  0
 10 11  1  0
 11 12  1  0
 12 13  1  0
 12 14  1  0
 14 15  2  0
 15 16  1  0
 16 17  1  0
 17 12  1  0
 16 18  2  0
 18 19  1  0
 19 20  2  0
 20 21  1  0
 21 17  2  0
 14 22  1  0
 22 23  2  0
 23 24  1  0
 24 25  2  0
 25 15  1  0
 13 26  2  0
 13 27  1  0
 27 28  1  0
  7 29  1  0
 29 30  1  0
 29 31  2  0
 30 32  1  0
 32 33  2  0
 33 34  1  0
 34 35  2  0
 35 36  1  0
 36 30  2  0
 32 37  1  0
 37 38  2  0
 38 39  1  0
 39 40  2  0
 40 41  1  0
 41 42  2  0
 42 37  1  0
 40 43  1  0
 28 44  1  0
  1  2  1  0
  2  3  1  0
 44 45  1  0
  3  4  1  0
 44 46  1  0
  4  5  1  0
 44 47  1  0
  5  6  1  0
 43 48  1  0
  6  1  1  0
 43 49  1  0
  4  7  1  0
 43 50  1  0
  2 51  1  0
  2 52  1  0
  3 53  1  0
  3 54  1  0
  4 55  1  0
  5 56  1  0
  5 57  1  0
  6 58  1  0
  6 59  1  0
  7 60  1  0
  8 61  1  0
  8 62  1  0
  9 63  1  0
  9 64  1  0
 10 65  1  0
 10 66  1  0
 11 67  1  0
 11 68  1  0
 18 69  1  0
 19 70  1  0
 20 71  1  0
 21 72  1  0
 22 73  1  0
 23 74  1  0
 24 75  1  0
 25 76  1  0
 27 77  1  0
 28 78  1  0
 28 79  1  0
 33 80  1  0
 34 81  1  0
 35 82  1  0
 36 83  1  0
 38 84  1  0
 39 85  1  0
 41 86  1  0
 42 87  1  0
M  END
> <Uni-Dock RESULT> 
ENERGY=   -4.172  LOWER_BOUND=    3.587  UPPER_BOUND=   12.598
INTER + INTRA:          -4.172
INTER:                  -4.172
INTRA:                   0.000
UNBOUND:                 0.000

$$$$
