
     RDKit          3D

 52 49  0  0  0  0  0  0  0  0999 V2000
   44.8328    5.8555   11.1066 Na  0  0  0  0  0 15  0  0  0  0  0  0
   43.8084    5.1683   12.0488 C   0  0  0  0  0  0  0  0  0  0  0  0
   42.6719    5.4517   11.5767 O   0  0  0  0  0  0  0  0  0  0  0  0
   44.1033    4.5712   13.1243 O   0  0  0  0  0  0  0  0  0  0  0  0
   45.0248    5.6119   11.2109 C   0  0  0  0  0  0  0  0  0  0  0  0
   44.8993    5.1907    9.7359 C   0  0  0  0  0  0  0  0  0  0  0  0
   45.1154    7.1479   11.3137 C   0  0  0  0  0  0  0  0  0  0  0  0
   45.4418    7.6398   12.7282 C   0  0  0  0  0  0  0  0  0  0  0  0
   45.2304    3.7185    9.4613 C   0  0  0  0  0  0  0  0  0  0  0  0
   44.2075    2.7278    9.9911 C   0  0  0  0  0  0  0  0  0  0  0  0
   45.6162    9.1506   12.7632 C   0  0  0  0  0  0  0  0  0  0  0  0
   45.4284    4.8875   12.6253 C   0  0  0  0  0  0  0  0  0  0  0  0
   45.2144    4.0552   13.4930 O   0  0  0  0  0  0  0  0  0  0  0  0
   44.3730    5.5251   11.7437 C   0  0  0  0  0  0  0  0  0  0  0  0
   46.6899    5.2609   12.3492 O   0  0  0  0  0  0  0  0  0  0  0  0
   44.7376    6.9344   11.2444 C   0  0  0  0  0  0  0  0  0  0  0  0
   44.0025    4.5609   10.6015 C   0  0  0  0  0  0  0  0  0  0  0  0
   44.7794    7.9624   12.3805 C   0  0  0  0  0  0  0  0  0  0  0  0
   45.0852    4.3776    9.5334 C   0  0  0  0  0  0  0  0  0  0  0  0
   44.6467    3.3824    8.4688 C   0  0  0  0  0  0  0  0  0  0  0  0
   45.1127    9.3518   11.8593 C   0  0  0  0  0  0  0  0  0  0  0  0
   45.9414    5.1759   11.6288 H   0  0  0  0  0  0  0  0  0  0  0  0
   45.6043    5.7860    9.1407 H   0  0  0  0  0  0  0  0  0  0  0  0
   43.9019    5.4199    9.3414 H   0  0  0  0  0  0  0  0  0  0  0  0
   44.1799    7.6108   10.9742 H   0  0  0  0  0  0  0  0  0  0  0  0
   45.9030    7.5038   10.6370 H   0  0  0  0  0  0  0  0  0  0  0  0
   46.3630    7.1642   13.0840 H   0  0  0  0  0  0  0  0  0  0  0  0
   44.6421    7.3640   13.4240 H   0  0  0  0  0  0  0  0  0  0  0  0
   46.2197    3.4752    9.8660 H   0  0  0  0  0  0  0  0  0  0  0  0
   45.2975    3.5858    8.3743 H   0  0  0  0  0  0  0  0  0  0  0  0
   43.1949    2.9952    9.6739 H   0  0  0  0  0  0  0  0  0  0  0  0
   44.2316    2.6694   11.0818 H   0  0  0  0  0  0  0  0  0  0  0  0
   44.4267    1.7252    9.6090 H   0  0  0  0  0  0  0  0  0  0  0  0
   45.8466    9.4819   13.7806 H   0  0  0  0  0  0  0  0  0  0  0  0
   46.4355    9.4666   12.1097 H   0  0  0  0  0  0  0  0  0  0  0  0
   44.7021    9.6582   12.4391 H   0  0  0  0  0  0  0  0  0  0  0  0
   43.4838    5.6286   12.3813 H   0  0  0  0  0  0  0  0  0  0  0  0
   47.2329    4.7402   12.9774 H   0  0  0  0  0  0  0  0  0  0  0  0
   43.9895    7.2572   10.5091 H   0  0  0  0  0  0  0  0  0  0  0  0
   45.7054    6.9299   10.7292 H   0  0  0  0  0  0  0  0  0  0  0  0
   43.0876    4.9272   10.1182 H   0  0  0  0  0  0  0  0  0  0  0  0
   43.7551    3.5797   11.0278 H   0  0  0  0  0  0  0  0  0  0  0  0
   43.8084    7.9945   12.8883 H   0  0  0  0  0  0  0  0  0  0  0  0
   45.5267    7.6755   13.1284 H   0  0  0  0  0  0  0  0  0  0  0  0
   46.0137    4.0182    9.9896 H   0  0  0  0  0  0  0  0  0  0  0  0
   45.3068    5.3333    9.0470 H   0  0  0  0  0  0  0  0  0  0  0  0
   44.4500    2.3991    8.9079 H   0  0  0  0  0  0  0  0  0  0  0  0
   45.4301    3.2662    7.7134 H   0  0  0  0  0  0  0  0  0  0  0  0
   43.7364    3.7228    7.9648 H   0  0  0  0  0  0  0  0  0  0  0  0
   46.0934    9.3632   11.3729 H   0  0  0  0  0  0  0  0  0  0  0  0
   44.3650    9.6889   11.1344 H   0  0  0  0  0  0  0  0  0  0  0  0
   45.1342   10.0708   12.6842 H   0  0  0  0  0  0  0  0  0  0  0  0
  3  2  1  0
  4  2  2  0
  5  2  1  0
  6  5  1  0
  7  5  1  0
  8  7  1  0
  9  6  1  0
 10  9  1  0
 11  8  1  0
 13 12  2  0
 14 12  1  0
 15 12  1  0
 16 14  1  0
 17 14  1  0
 18 16  1  0
 19 17  1  0
 20 19  1  0
 21 18  1  0
  5 22  1  0
  6 23  1  0
  6 24  1  0
  7 25  1  0
  7 26  1  0
  8 27  1  0
  8 28  1  0
  9 29  1  0
  9 30  1  0
 10 31  1  0
 10 32  1  0
 10 33  1  0
 11 34  1  0
 11 35  1  0
 11 36  1  0
 14 37  1  0
 15 38  1  0
 16 39  1  0
 16 40  1  0
 17 41  1  0
 17 42  1  0
 18 43  1  0
 18 44  1  0
 19 45  1  0
 19 46  1  0
 20 47  1  0
 20 48  1  0
 20 49  1  0
 21 50  1  0
 21 51  1  0
 21 52  1  0
M  CHG  2   1   1   3  -1
M  END
> <Uni-Dock RESULT> 
ENERGY=   -5.513  LOWER_BOUND=    0.000  UPPER_BOUND=    0.000
INTER + INTRA:          -5.513
INTER:                  -5.513
INTRA:                   0.000
UNBOUND:                 0.000

$$$$

     RDKit          3D

 52 49  0  0  0  0  0  0  0  0999 V2000
   47.5467   11.5172   19.2256 Na  0  0  0  0  0 15  0  0  0  0  0  0
   46.5749   12.0855   20.2942 C   0  0  0  0  0  0  0  0  0  0  0  0
   45.4170   11.7743   19.8977 O   0  0  0  0  0  0  0  0  0  0  0  0
   46.9194   12.8135   21.2698 O   0  0  0  0  0  0  0  0  0  0  0  0
   47.7519   11.5103   19.4804 C   0  0  0  0  0  0  0  0  0  0  0  0
   47.6156    9.9941   19.2535 C   0  0  0  0  0  0  0  0  0  0  0  0
   47.7733   12.2454   18.1250 C   0  0  0  0  0  0  0  0  0  0  0  0
   48.1057   13.7362   18.2522 C   0  0  0  0  0  0  0  0  0  0  0  0
   48.0089    9.1299   20.4580 C   0  0  0  0  0  0  0  0  0  0  0  0
   47.0442    9.1967   21.6299 C   0  0  0  0  0  0  0  0  0  0  0  0
   48.2107   14.3992   16.8870 C   0  0  0  0  0  0  0  0  0  0  0  0
   48.2178   12.4930   20.7073 C   0  0  0  0  0  0  0  0  0  0  0  0
   48.0606   12.9336   21.8354 O   0  0  0  0  0  0  0  0  0  0  0  0
   47.1160   11.9578   19.8145 C   0  0  0  0  0  0  0  0  0  0  0  0
   49.4546   12.3989   20.1893 O   0  0  0  0  0  0  0  0  0  0  0  0
   47.4045   12.0930   18.3089 C   0  0  0  0  0  0  0  0  0  0  0  0
   46.7671   10.5170   20.2317 C   0  0  0  0  0  0  0  0  0  0  0  0
   47.4221   13.5547   17.8480 C   0  0  0  0  0  0  0  0  0  0  0  0
   47.8348    9.4706   19.8974 C   0  0  0  0  0  0  0  0  0  0  0  0
   47.4210    8.0874   20.3785 C   0  0  0  0  0  0  0  0  0  0  0  0
   47.6798   13.6617   16.3529 C   0  0  0  0  0  0  0  0  0  0  0  0
   48.6961   11.7084   20.0039 H   0  0  0  0  0  0  0  0  0  0  0  0
   48.2798    9.7025   18.4293 H   0  0  0  0  0  0  0  0  0  0  0  0
   46.6007    9.7309   18.9316 H   0  0  0  0  0  0  0  0  0  0  0  0
   46.8106   12.1297   17.6107 H   0  0  0  0  0  0  0  0  0  0  0  0
   48.5295   11.7797   17.4797 H   0  0  0  0  0  0  0  0  0  0  0  0
   49.0552   13.8614   18.7854 H   0  0  0  0  0  0  0  0  0  0  0  0
   47.3342   14.2528   18.8333 H   0  0  0  0  0  0  0  0  0  0  0  0
   49.0165    9.3965   20.7975 H   0  0  0  0  0  0  0  0  0  0  0  0
   48.0596    8.0869   20.1215 H   0  0  0  0  0  0  0  0  0  0  0  0
   46.0139    9.0196   21.3063 H   0  0  0  0  0  0  0  0  0  0  0  0
   47.0934   10.1634   22.1367 H   0  0  0  0  0  0  0  0  0  0  0  0
   47.3016    8.4309   22.3691 H   0  0  0  0  0  0  0  0  0  0  0  0
   48.4464   15.4621   16.9992 H   0  0  0  0  0  0  0  0  0  0  0  0
   49.0008   13.9380   16.2861 H   0  0  0  0  0  0  0  0  0  0  0  0
   47.2675   14.3163   16.3376 H   0  0  0  0  0  0  0  0  0  0  0  0
   46.2363   12.5798   20.0317 H   0  0  0  0  0  0  0  0  0  0  0  0
   50.0341   12.7524   20.8964 H   0  0  0  0  0  0  0  0  0  0  0  0
   46.6272   11.5594   17.7472 H   0  0  0  0  0  0  0  0  0  0  0  0
   48.3606   11.6236   18.0490 H   0  0  0  0  0  0  0  0  0  0  0  0
   45.8263   10.2304   19.7440 H   0  0  0  0  0  0  0  0  0  0  0  0
   46.5743   10.4943   21.3124 H   0  0  0  0  0  0  0  0  0  0  0  0
   46.4613   14.0289   18.0800 H   0  0  0  0  0  0  0  0  0  0  0  0
   48.1972   14.1148   18.3825 H   0  0  0  0  0  0  0  0  0  0  0  0
   48.7882    9.7355   20.3668 H   0  0  0  0  0  0  0  0  0  0  0  0
   48.0018    9.4280   18.8160 H   0  0  0  0  0  0  0  0  0  0  0  0
   47.2791    8.0755   21.4639 H   0  0  0  0  0  0  0  0  0  0  0  0
   48.1931    7.3530   20.1290 H   0  0  0  0  0  0  0  0  0  0  0  0
   46.4857    7.7711   19.9055 H   0  0  0  0  0  0  0  0  0  0  0  0
   48.6487   13.2252   16.0899 H   0  0  0  0  0  0  0  0  0  0  0  0
   46.9025   13.1435   15.7825 H   0  0  0  0  0  0  0  0  0  0  0  0
   47.6850   14.7116   16.0436 H   0  0  0  0  0  0  0  0  0  0  0  0
  3  2  1  0
  4  2  2  0
  5  2  1  0
  6  5  1  0
  7  5  1  0
  8  7  1  0
  9  6  1  0
 10  9  1  0
 11  8  1  0
 13 12  2  0
 14 12  1  0
 15 12  1  0
 16 14  1  0
 17 14  1  0
 18 16  1  0
 19 17  1  0
 20 19  1  0
 21 18  1  0
  5 22  1  0
  6 23  1  0
  6 24  1  0
  7 25  1  0
  7 26  1  0
  8 27  1  0
  8 28  1  0
  9 29  1  0
  9 30  1  0
 10 31  1  0
 10 32  1  0
 10 33  1  0
 11 34  1  0
 11 35  1  0
 11 36  1  0
 14 37  1  0
 15 38  1  0
 16 39  1  0
 16 40  1  0
 17 41  1  0
 17 42  1  0
 18 43  1  0
 18 44  1  0
 19 45  1  0
 19 46  1  0
 20 47  1  0
 20 48  1  0
 20 49  1  0
 21 50  1  0
 21 51  1  0
 21 52  1  0
M  CHG  2   1   1   3  -1
M  END
> <Uni-Dock RESULT> 
ENERGY=   -4.680  LOWER_BOUND=    9.854  UPPER_BOUND=   10.769
INTER + INTRA:          -4.680
INTER:                  -4.680
INTRA:                   0.000
UNBOUND:                 0.000

$$$$

     RDKit          3D

 52 49  0  0  0  0  0  0  0  0999 V2000
   47.7159    7.3712   12.3367 Na  0  0  0  0  0 15  0  0  0  0  0  0
   47.9634    7.0652   13.8381 C   0  0  0  0  0  0  0  0  0  0  0  0
   48.4312    5.8927   13.8715 O   0  0  0  0  0  0  0  0  0  0  0  0
   47.6256    7.8209   14.7948 O   0  0  0  0  0  0  0  0  0  0  0  0
   47.7610    7.6791   12.4379 C   0  0  0  0  0  0  0  0  0  0  0  0
   49.0147    7.5405   11.5558 C   0  0  0  0  0  0  0  0  0  0  0  0
   46.5734    6.9446   11.7837 C   0  0  0  0  0  0  0  0  0  0  0  0
   45.2401    7.1998   12.4952 C   0  0  0  0  0  0  0  0  0  0  0  0
   50.1229    8.5574   11.8561 C   0  0  0  0  0  0  0  0  0  0  0  0
   50.8410    8.3429   13.1777 C   0  0  0  0  0  0  0  0  0  0  0  0
   44.0844    6.5358   11.7618 C   0  0  0  0  0  0  0  0  0  0  0  0
   47.2684    8.6531   13.6613 C   0  0  0  0  0  0  0  0  0  0  0  0
   47.3958    9.0794   14.7986 O   0  0  0  0  0  0  0  0  0  0  0  0
   47.7101    7.2838   13.1845 C   0  0  0  0  0  0  0  0  0  0  0  0
   46.7537    9.4418   12.7021 O   0  0  0  0  0  0  0  0  0  0  0  0
   46.8939    6.7362   12.0003 C   0  0  0  0  0  0  0  0  0  0  0  0
   49.2262    7.2951   12.9142 C   0  0  0  0  0  0  0  0  0  0  0  0
   45.4454    6.4187   12.3883 C   0  0  0  0  0  0  0  0  0  0  0  0
   49.6572    8.0957   11.6814 C   0  0  0  0  0  0  0  0  0  0  0  0
   51.1699    8.0813   11.5157 C   0  0  0  0  0  0  0  0  0  0  0  0
   44.6673    5.8521   11.2106 C   0  0  0  0  0  0  0  0  0  0  0  0
   47.5085    8.7431   12.5328 H   0  0  0  0  0  0  0  0  0  0  0  0
   48.7243    7.6946   10.5082 H   0  0  0  0  0  0  0  0  0  0  0  0
   49.4269    6.5255   11.6091 H   0  0  0  0  0  0  0  0  0  0  0  0
   46.7646    5.8644   11.7453 H   0  0  0  0  0  0  0  0  0  0  0  0
   46.4764    7.2812   10.7433 H   0  0  0  0  0  0  0  0  0  0  0  0
   45.0525    8.2779   12.5582 H   0  0  0  0  0  0  0  0  0  0  0  0
   45.2721    6.8134   13.5196 H   0  0  0  0  0  0  0  0  0  0  0  0
   49.7171    9.5752   11.8207 H   0  0  0  0  0  0  0  0  0  0  0  0
   50.8671    8.4910   11.0527 H   0  0  0  0  0  0  0  0  0  0  0  0
   51.1833    7.3085   13.2799 H   0  0  0  0  0  0  0  0  0  0  0  0
   50.2002    8.5880   14.0280 H   0  0  0  0  0  0  0  0  0  0  0  0
   51.7185    8.9956   13.2357 H   0  0  0  0  0  0  0  0  0  0  0  0
   43.1429    6.7278   12.2857 H   0  0  0  0  0  0  0  0  0  0  0  0
   43.9910    6.9242   10.7427 H   0  0  0  0  0  0  0  0  0  0  0  0
   44.2272    5.4520   11.7054 H   0  0  0  0  0  0  0  0  0  0  0  0
   47.5378    6.6090   14.0348 H   0  0  0  0  0  0  0  0  0  0  0  0
   46.5557   10.2811   13.1678 H   0  0  0  0  0  0  0  0  0  0  0  0
   47.3673    5.8155   11.6359 H   0  0  0  0  0  0  0  0  0  0  0  0
   46.8939    7.4441   11.1631 H   0  0  0  0  0  0  0  0  0  0  0  0
   49.5683    6.2583   12.7999 H   0  0  0  0  0  0  0  0  0  0  0  0
   49.7437    7.6956   13.7959 H   0  0  0  0  0  0  0  0  0  0  0  0
   45.4315    5.6920   13.2089 H   0  0  0  0  0  0  0  0  0  0  0  0
   44.9390    7.3216   12.7465 H   0  0  0  0  0  0  0  0  0  0  0  0
   49.3224    9.1350   11.7656 H   0  0  0  0  0  0  0  0  0  0  0  0
   49.2036    7.6769   10.7769 H   0  0  0  0  0  0  0  0  0  0  0  0
   51.6641    8.5271   12.3849 H   0  0  0  0  0  0  0  0  0  0  0  0
   51.4593    8.6548   10.6296 H   0  0  0  0  0  0  0  0  0  0  0  0
   51.5417    7.0588   11.3950 H   0  0  0  0  0  0  0  0  0  0  0  0
   44.6339    6.5672   10.3824 H   0  0  0  0  0  0  0  0  0  0  0  0
   45.1240    4.9259   10.8476 H   0  0  0  0  0  0  0  0  0  0  0  0
   43.6381    5.6292   11.5087 H   0  0  0  0  0  0  0  0  0  0  0  0
  3  2  1  0
  4  2  2  0
  5  2  1  0
  6  5  1  0
  7  5  1  0
  8  7  1  0
  9  6  1  0
 10  9  1  0
 11  8  1  0
 13 12  2  0
 14 12  1  0
 15 12  1  0
 16 14  1  0
 17 14  1  0
 18 16  1  0
 19 17  1  0
 20 19  1  0
 21 18  1  0
  5 22  1  0
  6 23  1  0
  6 24  1  0
  7 25  1  0
  7 26  1  0
  8 27  1  0
  8 28  1  0
  9 29  1  0
  9 30  1  0
 10 31  1  0
 10 32  1  0
 10 33  1  0
 11 34  1  0
 11 35  1  0
 11 36  1  0
 14 37  1  0
 15 38  1  0
 16 39  1  0
 16 40  1  0
 17 41  1  0
 17 42  1  0
 18 43  1  0
 18 44  1  0
 19 45  1  0
 19 46  1  0
 20 47  1  0
 20 48  1  0
 20 49  1  0
 21 50  1  0
 21 51  1  0
 21 52  1  0
M  CHG  2   1   1   3  -1
M  END
> <Uni-Dock RESULT> 
ENERGY=   -4.447  LOWER_BOUND=    3.322  UPPER_BOUND=    5.117
INTER + INTRA:          -4.447
INTER:                  -4.447
INTRA:                   0.000
UNBOUND:                 0.000

$$$$

     RDKit          3D

 52 49  0  0  0  0  0  0  0  0999 V2000
   47.9079    7.1590   12.9270 Na  0  0  0  0  0 15  0  0  0  0  0  0
   47.2788    8.2045   13.8864 C   0  0  0  0  0  0  0  0  0  0  0  0
   48.0248    8.2203   14.9052 O   0  0  0  0  0  0  0  0  0  0  0  0
   46.1756    8.7922   13.6915 O   0  0  0  0  0  0  0  0  0  0  0  0
   47.7620    7.3449   12.7007 C   0  0  0  0  0  0  0  0  0  0  0  0
   49.2270    7.6372   12.3298 C   0  0  0  0  0  0  0  0  0  0  0  0
   47.6088    5.8673   13.1145 C   0  0  0  0  0  0  0  0  0  0  0  0
   46.1486    5.4431   13.3075 C   0  0  0  0  0  0  0  0  0  0  0  0
   49.4350    8.9141   11.5060 C   0  0  0  0  0  0  0  0  0  0  0  0
   49.2096   10.2074   12.2709 C   0  0  0  0  0  0  0  0  0  0  0  0
   46.0394    3.9582   13.6199 C   0  0  0  0  0  0  0  0  0  0  0  0
   46.3061    8.0553   12.4486 C   0  0  0  0  0  0  0  0  0  0  0  0
   45.5406    8.9948   12.5995 O   0  0  0  0  0  0  0  0  0  0  0  0
   47.4192    7.6702   13.4027 C   0  0  0  0  0  0  0  0  0  0  0  0
   46.2367    7.3045   11.3357 O   0  0  0  0  0  0  0  0  0  0  0  0
   47.7782    6.1739   13.3797 C   0  0  0  0  0  0  0  0  0  0  0  0
   48.6374    8.5834   13.1709 C   0  0  0  0  0  0  0  0  0  0  0  0
   46.6503    5.2954   13.9322 C   0  0  0  0  0  0  0  0  0  0  0  0
   49.3901    8.3366   11.8597 C   0  0  0  0  0  0  0  0  0  0  0  0
   50.5517    9.3067   11.6998 C   0  0  0  0  0  0  0  0  0  0  0  0
   47.0391    3.8250   13.9265 C   0  0  0  0  0  0  0  0  0  0  0  0
   47.1287    7.5331   11.8242 H   0  0  0  0  0  0  0  0  0  0  0  0
   49.6061    6.8065   11.7201 H   0  0  0  0  0  0  0  0  0  0  0  0
   49.8629    7.6717   13.2228 H   0  0  0  0  0  0  0  0  0  0  0  0
   48.1709    5.6667   14.0356 H   0  0  0  0  0  0  0  0  0  0  0  0
   48.0499    5.2321   12.3354 H   0  0  0  0  0  0  0  0  0  0  0  0
   45.5747    5.6615   12.3995 H   0  0  0  0  0  0  0  0  0  0  0  0
   45.6906    6.0074   14.1270 H   0  0  0  0  0  0  0  0  0  0  0  0
   48.7916    8.8965   10.6187 H   0  0  0  0  0  0  0  0  0  0  0  0
   50.4694    8.9139   11.1405 H   0  0  0  0  0  0  0  0  0  0  0  0
   49.7741   10.2176   13.2083 H   0  0  0  0  0  0  0  0  0  0  0  0
   48.1516   10.3632   12.4947 H   0  0  0  0  0  0  0  0  0  0  0  0
   49.5413   11.0597   11.6685 H   0  0  0  0  0  0  0  0  0  0  0  0
   44.9908    3.6758   13.7560 H   0  0  0  0  0  0  0  0  0  0  0  0
   46.4507    3.3541   12.8051 H   0  0  0  0  0  0  0  0  0  0  0  0
   46.5802    3.7105   14.5389 H   0  0  0  0  0  0  0  0  0  0  0  0
   47.0331    7.8941   14.4071 H   0  0  0  0  0  0  0  0  0  0  0  0
   45.4993    7.7031   10.8278 H   0  0  0  0  0  0  0  0  0  0  0  0
   48.6764    6.0130   13.9896 H   0  0  0  0  0  0  0  0  0  0  0  0
   48.0237    5.8449   12.3630 H   0  0  0  0  0  0  0  0  0  0  0  0
   49.3348    8.4545   14.0086 H   0  0  0  0  0  0  0  0  0  0  0  0
   48.3097    9.6310   13.2000 H   0  0  0  0  0  0  0  0  0  0  0  0
   46.4123    5.5984   14.9585 H   0  0  0  0  0  0  0  0  0  0  0  0
   45.7395    5.4237   13.3371 H   0  0  0  0  0  0  0  0  0  0  0  0
   48.7151    8.4522   11.0051 H   0  0  0  0  0  0  0  0  0  0  0  0
   49.7831    7.3148   11.8320 H   0  0  0  0  0  0  0  0  0  0  0  0
   50.1986   10.3428   11.6847 H   0  0  0  0  0  0  0  0  0  0  0  0
   51.0793    9.1142   10.7604 H   0  0  0  0  0  0  0  0  0  0  0  0
   51.2685    9.1991   12.5202 H   0  0  0  0  0  0  0  0  0  0  0  0
   47.2530    3.4800   12.9099 H   0  0  0  0  0  0  0  0  0  0  0  0
   47.9268    3.6514   14.5430 H   0  0  0  0  0  0  0  0  0  0  0  0
   46.2229    3.2158   14.3274 H   0  0  0  0  0  0  0  0  0  0  0  0
  3  2  1  0
  4  2  2  0
  5  2  1  0
  6  5  1  0
  7  5  1  0
  8  7  1  0
  9  6  1  0
 10  9  1  0
 11  8  1  0
 13 12  2  0
 14 12  1  0
 15 12  1  0
 16 14  1  0
 17 14  1  0
 18 16  1  0
 19 17  1  0
 20 19  1  0
 21 18  1  0
  5 22  1  0
  6 23  1  0
  6 24  1  0
  7 25  1  0
  7 26  1  0
  8 27  1  0
  8 28  1  0
  9 29  1  0
  9 30  1  0
 10 31  1  0
 10 32  1  0
 10 33  1  0
 11 34  1  0
 11 35  1  0
 11 36  1  0
 14 37  1  0
 15 38  1  0
 16 39  1  0
 16 40  1  0
 17 41  1  0
 17 42  1  0
 18 43  1  0
 18 44  1  0
 19 45  1  0
 19 46  1  0
 20 47  1  0
 20 48  1  0
 20 49  1  0
 21 50  1  0
 21 51  1  0
 21 52  1  0
M  CHG  2   1   1   3  -1
M  END
> <Uni-Dock RESULT> 
ENERGY=   -4.416  LOWER_BOUND=    3.185  UPPER_BOUND=    5.439
INTER + INTRA:          -4.416
INTER:                  -4.416
INTRA:                   0.000
UNBOUND:                 0.000

$$$$

     RDKit          3D

 52 49  0  0  0  0  0  0  0  0999 V2000
   47.6828    8.5398   20.7922 Na  0  0  0  0  0 15  0  0  0  0  0  0
   48.1508    8.2397   19.3429 C   0  0  0  0  0  0  0  0  0  0  0  0
   47.1189    7.8490   18.7286 O   0  0  0  0  0  0  0  0  0  0  0  0
   49.3530    8.2725   18.9504 O   0  0  0  0  0  0  0  0  0  0  0  0
   47.9357    8.7473   20.7832 C   0  0  0  0  0  0  0  0  0  0  0  0
   46.7953    9.7772   20.8723 C   0  0  0  0  0  0  0  0  0  0  0  0
   47.6055    7.5199   21.6563 C   0  0  0  0  0  0  0  0  0  0  0  0
   48.7745    6.5366   21.7818 C   0  0  0  0  0  0  0  0  0  0  0  0
   47.1748   11.1916   20.4163 C   0  0  0  0  0  0  0  0  0  0  0  0
   47.3975   11.3387   18.9206 C   0  0  0  0  0  0  0  0  0  0  0  0
   48.4379    5.3930   22.7269 C   0  0  0  0  0  0  0  0  0  0  0  0
   49.5061    8.7483   20.3125 C   0  0  0  0  0  0  0  0  0  0  0  0
   50.3574    8.8891   19.4482 O   0  0  0  0  0  0  0  0  0  0  0  0
   48.0743    8.3144   20.0694 C   0  0  0  0  0  0  0  0  0  0  0  0
   49.7929    9.0440   21.5921 O   0  0  0  0  0  0  0  0  0  0  0  0
   47.4259    7.5879   21.2610 C   0  0  0  0  0  0  0  0  0  0  0  0
   47.2468    9.5162   19.5768 C   0  0  0  0  0  0  0  0  0  0  0  0
   48.0669    6.2216   21.5293 C   0  0  0  0  0  0  0  0  0  0  0  0
   46.9649   10.5851   20.6372 C   0  0  0  0  0  0  0  0  0  0  0  0
   46.1764   11.7478   20.0520 C   0  0  0  0  0  0  0  0  0  0  0  0
   47.3911    5.5106   22.6916 C   0  0  0  0  0  0  0  0  0  0  0  0
   48.8601    9.2068   21.1561 H   0  0  0  0  0  0  0  0  0  0  0  0
   46.4802    9.8607   21.9207 H   0  0  0  0  0  0  0  0  0  0  0  0
   45.9118    9.4398   20.3169 H   0  0  0  0  0  0  0  0  0  0  0  0
   46.7275    6.9929   21.2609 H   0  0  0  0  0  0  0  0  0  0  0  0
   47.3361    7.8621   22.6639 H   0  0  0  0  0  0  0  0  0  0  0  0
   49.6625    7.0601   22.1545 H   0  0  0  0  0  0  0  0  0  0  0  0
   49.0296    6.1173   20.8026 H   0  0  0  0  0  0  0  0  0  0  0  0
   48.0669   11.5322   20.9547 H   0  0  0  0  0  0  0  0  0  0  0  0
   46.3603   11.8678   20.7044 H   0  0  0  0  0  0  0  0  0  0  0  0
   46.5581   10.9268   18.3520 H   0  0  0  0  0  0  0  0  0  0  0  0
   48.3172   10.8434   18.6003 H   0  0  0  0  0  0  0  0  0  0  0  0
   47.4935   12.3980   18.6601 H   0  0  0  0  0  0  0  0  0  0  0  0
   49.2833    4.7019   22.8015 H   0  0  0  0  0  0  0  0  0  0  0  0
   48.2151    5.7663   23.7315 H   0  0  0  0  0  0  0  0  0  0  0  0
   47.5699    4.8308   22.3682 H   0  0  0  0  0  0  0  0  0  0  0  0
   48.1243    7.5942   19.2407 H   0  0  0  0  0  0  0  0  0  0  0  0
   50.7296    9.3309   21.5637 H   0  0  0  0  0  0  0  0  0  0  0  0
   46.3594    7.4375   21.0501 H   0  0  0  0  0  0  0  0  0  0  0  0
   47.4851    8.1966   22.1710 H   0  0  0  0  0  0  0  0  0  0  0  0
   46.2906    9.1450   19.1860 H   0  0  0  0  0  0  0  0  0  0  0  0
   47.7656    9.9846   18.7300 H   0  0  0  0  0  0  0  0  0  0  0  0
   47.9917    5.5939   20.6338 H   0  0  0  0  0  0  0  0  0  0  0  0
   49.1325    6.3371   21.7555 H   0  0  0  0  0  0  0  0  0  0  0  0
   47.9037   10.9693   21.0501 H   0  0  0  0  0  0  0  0  0  0  0  0
   46.3918   10.1578   21.4667 H   0  0  0  0  0  0  0  0  0  0  0  0
   46.7314   12.2296   19.2407 H   0  0  0  0  0  0  0  0  0  0  0  0
   45.9817   12.4996   20.8232 H   0  0  0  0  0  0  0  0  0  0  0  0
   45.2133   11.4092   19.6568 H   0  0  0  0  0  0  0  0  0  0  0  0
   47.4754    6.0969   23.6123 H   0  0  0  0  0  0  0  0  0  0  0  0
   46.3290    5.3439   22.4858 H   0  0  0  0  0  0  0  0  0  0  0  0
   47.8603    4.5371   22.8646 H   0  0  0  0  0  0  0  0  0  0  0  0
  3  2  1  0
  4  2  2  0
  5  2  1  0
  6  5  1  0
  7  5  1  0
  8  7  1  0
  9  6  1  0
 10  9  1  0
 11  8  1  0
 13 12  2  0
 14 12  1  0
 15 12  1  0
 16 14  1  0
 17 14  1  0
 18 16  1  0
 19 17  1  0
 20 19  1  0
 21 18  1  0
  5 22  1  0
  6 23  1  0
  6 24  1  0
  7 25  1  0
  7 26  1  0
  8 27  1  0
  8 28  1  0
  9 29  1  0
  9 30  1  0
 10 31  1  0
 10 32  1  0
 10 33  1  0
 11 34  1  0
 11 35  1  0
 11 36  1  0
 14 37  1  0
 15 38  1  0
 16 39  1  0
 16 40  1  0
 17 41  1  0
 17 42  1  0
 18 43  1  0
 18 44  1  0
 19 45  1  0
 19 46  1  0
 20 47  1  0
 20 48  1  0
 20 49  1  0
 21 50  1  0
 21 51  1  0
 21 52  1  0
M  CHG  2   1   1   3  -1
M  END
> <Uni-Dock RESULT> 
ENERGY=   -4.386  LOWER_BOUND=    9.159  UPPER_BOUND=   10.867
INTER + INTRA:          -4.386
INTER:                  -4.386
INTRA:                   0.000
UNBOUND:                 0.000

$$$$

     RDKit          3D

 52 49  0  0  0  0  0  0  0  0999 V2000
   45.9908    6.3743   12.2996 Na  0  0  0  0  0 15  0  0  0  0  0  0
   45.4743    6.7624   10.8882 C   0  0  0  0  0  0  0  0  0  0  0  0
   45.8693    5.8421   10.1189 O   0  0  0  0  0  0  0  0  0  0  0  0
   44.8960    7.8512   10.6046 O   0  0  0  0  0  0  0  0  0  0  0  0
   45.7311    6.5496   12.3939 C   0  0  0  0  0  0  0  0  0  0  0  0
   45.2610    5.1647   12.8737 C   0  0  0  0  0  0  0  0  0  0  0  0
   47.2484    6.6993   12.6248 C   0  0  0  0  0  0  0  0  0  0  0  0
   47.7620    8.1188   12.3594 C   0  0  0  0  0  0  0  0  0  0  0  0
   43.7488    5.0468   13.1014 C   0  0  0  0  0  0  0  0  0  0  0  0
   42.9122    5.0617   11.8332 C   0  0  0  0  0  0  0  0  0  0  0  0
   49.2413    8.2442   12.6915 C   0  0  0  0  0  0  0  0  0  0  0  0
   45.0291    7.9889   12.0427 C   0  0  0  0  0  0  0  0  0  0  0  0
   44.2687    8.6648   11.3670 O   0  0  0  0  0  0  0  0  0  0  0  0
   45.7470    6.7406   11.5697 C   0  0  0  0  0  0  0  0  0  0  0  0
   45.2366    8.2997   13.3340 O   0  0  0  0  0  0  0  0  0  0  0  0
   47.0785    6.4685   12.2917 C   0  0  0  0  0  0  0  0  0  0  0  0
   44.7826    5.5409   11.6167 C   0  0  0  0  0  0  0  0  0  0  0  0
   48.1450    7.5191   11.9627 C   0  0  0  0  0  0  0  0  0  0  0  0
   44.4230    5.0553   13.0244 C   0  0  0  0  0  0  0  0  0  0  0  0
   43.4397    3.8950   12.9730 C   0  0  0  0  0  0  0  0  0  0  0  0
   49.4595    7.2133   12.6640 C   0  0  0  0  0  0  0  0  0  0  0  0
   45.2085    7.3227   12.9718 H   0  0  0  0  0  0  0  0  0  0  0  0
   45.7402    4.9468   13.8372 H   0  0  0  0  0  0  0  0  0  0  0  0
   45.5890    4.3747   12.1873 H   0  0  0  0  0  0  0  0  0  0  0  0
   47.8035    5.9884   11.9993 H   0  0  0  0  0  0  0  0  0  0  0  0
   47.4767    6.4417   13.6672 H   0  0  0  0  0  0  0  0  0  0  0  0
   47.1968    8.8378   12.9636 H   0  0  0  0  0  0  0  0  0  0  0  0
   47.6155    8.3891   11.3081 H   0  0  0  0  0  0  0  0  0  0  0  0
   43.4080    5.8423   13.7743 H   0  0  0  0  0  0  0  0  0  0  0  0
   43.5595    4.0985   13.6196 H   0  0  0  0  0  0  0  0  0  0  0  0
   43.2836    4.3348   11.1043 H   0  0  0  0  0  0  0  0  0  0  0  0
   42.9013    6.0513   11.3702 H   0  0  0  0  0  0  0  0  0  0  0  0
   41.8742    4.8034   12.0680 H   0  0  0  0  0  0  0  0  0  0  0  0
   49.5889    9.2630   12.4937 H   0  0  0  0  0  0  0  0  0  0  0  0
   49.4273    8.0209   13.7468 H   0  0  0  0  0  0  0  0  0  0  0  0
   49.8388    7.5571   12.0838 H   0  0  0  0  0  0  0  0  0  0  0  0
   45.9847    6.9237   10.5123 H   0  0  0  0  0  0  0  0  0  0  0  0
   44.6841    9.0966   13.4766 H   0  0  0  0  0  0  0  0  0  0  0  0
   47.4542    5.4830   11.9882 H   0  0  0  0  0  0  0  0  0  0  0  0
   46.9352    6.4311   13.3781 H   0  0  0  0  0  0  0  0  0  0  0  0
   45.2329    4.7088   11.0600 H   0  0  0  0  0  0  0  0  0  0  0  0
   43.8584    5.8038   11.0854 H   0  0  0  0  0  0  0  0  0  0  0  0
   48.3157    7.5487   10.8803 H   0  0  0  0  0  0  0  0  0  0  0  0
   47.8056    8.5160   12.2646 H   0  0  0  0  0  0  0  0  0  0  0  0
   43.9768    5.8690   13.6059 H   0  0  0  0  0  0  0  0  0  0  0  0
   45.3223    4.7267   13.5559 H   0  0  0  0  0  0  0  0  0  0  0  0
   42.5079    4.1917   12.4809 H   0  0  0  0  0  0  0  0  0  0  0  0
   43.1966    3.5595   13.9860 H   0  0  0  0  0  0  0  0  0  0  0  0
   43.8627    3.0461   12.4263 H   0  0  0  0  0  0  0  0  0  0  0  0
   49.3318    7.2076   13.7512 H   0  0  0  0  0  0  0  0  0  0  0  0
   49.8499    6.2375   12.3581 H   0  0  0  0  0  0  0  0  0  0  0  0
   50.2078    7.9719   12.4138 H   0  0  0  0  0  0  0  0  0  0  0  0
  3  2  1  0
  4  2  2  0
  5  2  1  0
  6  5  1  0
  7  5  1  0
  8  7  1  0
  9  6  1  0
 10  9  1  0
 11  8  1  0
 13 12  2  0
 14 12  1  0
 15 12  1  0
 16 14  1  0
 17 14  1  0
 18 16  1  0
 19 17  1  0
 20 19  1  0
 21 18  1  0
  5 22  1  0
  6 23  1  0
  6 24  1  0
  7 25  1  0
  7 26  1  0
  8 27  1  0
  8 28  1  0
  9 29  1  0
  9 30  1  0
 10 31  1  0
 10 32  1  0
 10 33  1  0
 11 34  1  0
 11 35  1  0
 11 36  1  0
 14 37  1  0
 15 38  1  0
 16 39  1  0
 16 40  1  0
 17 41  1  0
 17 42  1  0
 18 43  1  0
 18 44  1  0
 19 45  1  0
 19 46  1  0
 20 47  1  0
 20 48  1  0
 20 49  1  0
 21 50  1  0
 21 51  1  0
 21 52  1  0
M  CHG  2   1   1   3  -1
M  END
> <Uni-Dock RESULT> 
ENERGY=   -4.349  LOWER_BOUND=    2.258  UPPER_BOUND=    3.376
INTER + INTRA:          -4.349
INTER:                  -4.349
INTRA:                   0.000
UNBOUND:                 0.000

$$$$

     RDKit          3D

 52 49  0  0  0  0  0  0  0  0999 V2000
   40.1851   11.9409   12.6114 Na  0  0  0  0  0 15  0  0  0  0  0  0
   38.7584   11.7819   12.0210 C   0  0  0  0  0  0  0  0  0  0  0  0
   38.3574   10.6483   12.4068 O   0  0  0  0  0  0  0  0  0  0  0  0
   38.2134   12.5948   11.2193 O   0  0  0  0  0  0  0  0  0  0  0  0
   40.1088   12.2586   12.5933 C   0  0  0  0  0  0  0  0  0  0  0  0
   40.1711   12.1231   14.1252 C   0  0  0  0  0  0  0  0  0  0  0  0
   41.2106   11.3973   11.9437 C   0  0  0  0  0  0  0  0  0  0  0  0
   41.3465   11.6289   10.4347 C   0  0  0  0  0  0  0  0  0  0  0  0
   39.4392   13.2297   14.8948 C   0  0  0  0  0  0  0  0  0  0  0  0
   37.9239   13.1756   14.7977 C   0  0  0  0  0  0  0  0  0  0  0  0
   42.5055   10.8330    9.8538 C   0  0  0  0  0  0  0  0  0  0  0  0
   39.4448   13.3018   11.5168 C   0  0  0  0  0  0  0  0  0  0  0  0
   38.4662   13.8320   11.0143 O   0  0  0  0  0  0  0  0  0  0  0  0
   39.4658   11.9269   12.1544 C   0  0  0  0  0  0  0  0  0  0  0  0
   40.6086   13.9709   11.5884 O   0  0  0  0  0  0  0  0  0  0  0  0
   40.8362   11.2289   12.1004 C   0  0  0  0  0  0  0  0  0  0  0  0
   38.8902   12.0098   13.5804 C   0  0  0  0  0  0  0  0  0  0  0  0
   41.2443   10.8559   10.6708 C   0  0  0  0  0  0  0  0  0  0  0  0
   39.7839   12.7263   14.5976 C   0  0  0  0  0  0  0  0  0  0  0  0
   39.1194   12.7926   15.9651 C   0  0  0  0  0  0  0  0  0  0  0  0
   42.5871   10.1421   10.6457 C   0  0  0  0  0  0  0  0  0  0  0  0
   40.2762   13.3089   12.3219 H   0  0  0  0  0  0  0  0  0  0  0  0
   41.2226   12.1677   14.4381 H   0  0  0  0  0  0  0  0  0  0  0  0
   39.7995   11.1444   14.4523 H   0  0  0  0  0  0  0  0  0  0  0  0
   41.0264   10.3320   12.1333 H   0  0  0  0  0  0  0  0  0  0  0  0
   42.1729   11.6360   12.4149 H   0  0  0  0  0  0  0  0  0  0  0  0
   41.5078   12.6946   10.2350 H   0  0  0  0  0  0  0  0  0  0  0  0
   40.4267   11.3353    9.9174 H   0  0  0  0  0  0  0  0  0  0  0  0
   39.7925   14.2131   14.5636 H   0  0  0  0  0  0  0  0  0  0  0  0
   39.7130   13.1409   15.9535 H   0  0  0  0  0  0  0  0  0  0  0  0
   37.5462   12.1774   15.0397 H   0  0  0  0  0  0  0  0  0  0  0  0
   37.5746   13.4526   13.8003 H   0  0  0  0  0  0  0  0  0  0  0  0
   37.4793   13.8845   15.5041 H   0  0  0  0  0  0  0  0  0  0  0  0
   42.5846   11.0101    8.7767 H   0  0  0  0  0  0  0  0  0  0  0  0
   43.4536   11.1252   10.3163 H   0  0  0  0  0  0  0  0  0  0  0  0
   42.3617    9.7594   10.0121 H   0  0  0  0  0  0  0  0  0  0  0  0
   38.7701   11.3186   11.5593 H   0  0  0  0  0  0  0  0  0  0  0  0
   40.4113   14.8333   11.1666 H   0  0  0  0  0  0  0  0  0  0  0  0
   40.7936   10.3116   12.7015 H   0  0  0  0  0  0  0  0  0  0  0  0
   41.6158   11.8604   12.5426 H   0  0  0  0  0  0  0  0  0  0  0  0
   38.6946   10.9905   13.9378 H   0  0  0  0  0  0  0  0  0  0  0  0
   37.9169   12.5167   13.5444 H   0  0  0  0  0  0  0  0  0  0  0  0
   40.4841   10.2034   10.2258 H   0  0  0  0  0  0  0  0  0  0  0  0
   41.3078   11.7529   10.0451 H   0  0  0  0  0  0  0  0  0  0  0  0
   40.0013   13.7460   14.2624 H   0  0  0  0  0  0  0  0  0  0  0  0
   40.7405   12.2033   14.6999 H   0  0  0  0  0  0  0  0  0  0  0  0
   38.1738   13.3418   15.9157 H   0  0  0  0  0  0  0  0  0  0  0  0
   39.7724   13.3044   16.6790 H   0  0  0  0  0  0  0  0  0  0  0  0
   38.9149   11.7887   16.3510 H   0  0  0  0  0  0  0  0  0  0  0  0
   43.3776   10.7794   11.0547 H   0  0  0  0  0  0  0  0  0  0  0  0
   42.5516    9.2184   11.2320 H   0  0  0  0  0  0  0  0  0  0  0  0
   42.8585    9.8816    9.6179 H   0  0  0  0  0  0  0  0  0  0  0  0
  3  2  1  0
  4  2  2  0
  5  2  1  0
  6  5  1  0
  7  5  1  0
  8  7  1  0
  9  6  1  0
 10  9  1  0
 11  8  1  0
 13 12  2  0
 14 12  1  0
 15 12  1  0
 16 14  1  0
 17 14  1  0
 18 16  1  0
 19 17  1  0
 20 19  1  0
 21 18  1  0
  5 22  1  0
  6 23  1  0
  6 24  1  0
  7 25  1  0
  7 26  1  0
  8 27  1  0
  8 28  1  0
  9 29  1  0
  9 30  1  0
 10 31  1  0
 10 32  1  0
 10 33  1  0
 11 34  1  0
 11 35  1  0
 11 36  1  0
 14 37  1  0
 15 38  1  0
 16 39  1  0
 16 40  1  0
 17 41  1  0
 17 42  1  0
 18 43  1  0
 18 44  1  0
 19 45  1  0
 19 46  1  0
 20 47  1  0
 20 48  1  0
 20 49  1  0
 21 50  1  0
 21 51  1  0
 21 52  1  0
M  CHG  2   1   1   3  -1
M  END
> <Uni-Dock RESULT> 
ENERGY=   -4.326  LOWER_BOUND=    6.698  UPPER_BOUND=    9.120
INTER + INTRA:          -4.326
INTER:                  -4.326
INTRA:                   0.000
UNBOUND:                 0.000

$$$$

     RDKit          3D

 52 49  0  0  0  0  0  0  0  0999 V2000
   48.4924    4.7555   19.6297 Na  0  0  0  0  0 15  0  0  0  0  0  0
   47.7705    5.9529   18.9556 C   0  0  0  0  0  0  0  0  0  0  0  0
   46.5511    5.6281   18.9061 O   0  0  0  0  0  0  0  0  0  0  0  0
   48.3520    6.9615   18.4607 O   0  0  0  0  0  0  0  0  0  0  0  0
   48.7022    4.9900   19.7193 C   0  0  0  0  0  0  0  0  0  0  0  0
   48.1516    4.6298   21.1107 C   0  0  0  0  0  0  0  0  0  0  0  0
   48.8437    3.7153   18.8632 C   0  0  0  0  0  0  0  0  0  0  0  0
   49.5705    3.9575   17.5357 C   0  0  0  0  0  0  0  0  0  0  0  0
   48.3657    5.7072   22.1811 C   0  0  0  0  0  0  0  0  0  0  0  0
   47.5219    6.9579   22.0015 C   0  0  0  0  0  0  0  0  0  0  0  0
   49.7724    2.6589   16.7693 C   0  0  0  0  0  0  0  0  0  0  0  0
   49.4830    6.2622   19.0411 C   0  0  0  0  0  0  0  0  0  0  0  0
   49.5136    7.4370   18.7086 O   0  0  0  0  0  0  0  0  0  0  0  0
   48.2295    5.4188   19.1635 C   0  0  0  0  0  0  0  0  0  0  0  0
   50.6180    5.6342   19.3936 O   0  0  0  0  0  0  0  0  0  0  0  0
   48.4585    3.9143   18.9345 C   0  0  0  0  0  0  0  0  0  0  0  0
   47.5309    5.7227   20.5018 C   0  0  0  0  0  0  0  0  0  0  0  0
   48.8416    3.5973   17.4846 C   0  0  0  0  0  0  0  0  0  0  0  0
   48.2582    5.1991   21.7442 C   0  0  0  0  0  0  0  0  0  0  0  0
   47.5161    5.5774   23.0179 C   0  0  0  0  0  0  0  0  0  0  0  0
   49.0340    2.1030   17.2759 C   0  0  0  0  0  0  0  0  0  0  0  0
   49.6929    5.4480   19.8363 H   0  0  0  0  0  0  0  0  0  0  0  0
   48.6656    3.7277   21.4678 H   0  0  0  0  0  0  0  0  0  0  0  0
   47.0868    4.3715   21.0612 H   0  0  0  0  0  0  0  0  0  0  0  0
   47.8578    3.2760   18.6635 H   0  0  0  0  0  0  0  0  0  0  0  0
   49.4095    2.9659   19.4318 H   0  0  0  0  0  0  0  0  0  0  0  0
   50.5472    4.4176   17.7250 H   0  0  0  0  0  0  0  0  0  0  0  0
   48.9999    4.6494   16.9069 H   0  0  0  0  0  0  0  0  0  0  0  0
   49.4254    5.9839   22.2276 H   0  0  0  0  0  0  0  0  0  0  0  0
   48.1157    5.2682   23.1550 H   0  0  0  0  0  0  0  0  0  0  0  0
   46.4653    6.7075   21.8653 H   0  0  0  0  0  0  0  0  0  0  0  0
   47.8571    7.5498   21.1466 H   0  0  0  0  0  0  0  0  0  0  0  0
   47.6056    7.5949   22.8884 H   0  0  0  0  0  0  0  0  0  0  0  0
   50.2906    2.8530   15.8250 H   0  0  0  0  0  0  0  0  0  0  0  0
   50.3747    1.9511   17.3476 H   0  0  0  0  0  0  0  0  0  0  0  0
   48.8122    2.1864   16.5393 H   0  0  0  0  0  0  0  0  0  0  0  0
   47.5626    5.7693   18.3632 H   0  0  0  0  0  0  0  0  0  0  0  0
   51.3099    6.3202   19.2878 H   0  0  0  0  0  0  0  0  0  0  0  0
   47.5361    3.3717   19.1782 H   0  0  0  0  0  0  0  0  0  0  0  0
   49.2374    3.5297   19.6034 H   0  0  0  0  0  0  0  0  0  0  0  0
   46.5218    5.2914   20.4748 H   0  0  0  0  0  0  0  0  0  0  0  0
   47.4003    6.8086   20.5986 H   0  0  0  0  0  0  0  0  0  0  0  0
   48.0579    3.9550   16.8067 H   0  0  0  0  0  0  0  0  0  0  0  0
   49.7674    4.1155   17.2118 H   0  0  0  0  0  0  0  0  0  0  0  0
   49.2725    5.6090   21.7932 H   0  0  0  0  0  0  0  0  0  0  0  0
   48.3464    4.1083   21.7032 H   0  0  0  0  0  0  0  0  0  0  0  0
   47.4377    6.6647   23.1182 H   0  0  0  0  0  0  0  0  0  0  0  0
   48.0476    5.1932   23.8941 H   0  0  0  0  0  0  0  0  0  0  0  0
   46.5052    5.1573   23.0225 H   0  0  0  0  0  0  0  0  0  0  0  0
   49.8337    1.7175   17.9163 H   0  0  0  0  0  0  0  0  0  0  0  0
   48.1152    1.5534   17.5039 H   0  0  0  0  0  0  0  0  0  0  0  0
   49.3032    1.8975   16.2352 H   0  0  0  0  0  0  0  0  0  0  0  0
  3  2  1  0
  4  2  2  0
  5  2  1  0
  6  5  1  0
  7  5  1  0
  8  7  1  0
  9  6  1  0
 10  9  1  0
 11  8  1  0
 13 12  2  0
 14 12  1  0
 15 12  1  0
 16 14  1  0
 17 14  1  0
 18 16  1  0
 19 17  1  0
 20 19  1  0
 21 18  1  0
  5 22  1  0
  6 23  1  0
  6 24  1  0
  7 25  1  0
  7 26  1  0
  8 27  1  0
  8 28  1  0
  9 29  1  0
  9 30  1  0
 10 31  1  0
 10 32  1  0
 10 33  1  0
 11 34  1  0
 11 35  1  0
 11 36  1  0
 14 37  1  0
 15 38  1  0
 16 39  1  0
 16 40  1  0
 17 41  1  0
 17 42  1  0
 18 43  1  0
 18 44  1  0
 19 45  1  0
 19 46  1  0
 20 47  1  0
 20 48  1  0
 20 49  1  0
 21 50  1  0
 21 51  1  0
 21 52  1  0
M  CHG  2   1   1   3  -1
M  END
> <Uni-Dock RESULT> 
ENERGY=   -4.191  LOWER_BOUND=    7.909  UPPER_BOUND=    9.877
INTER + INTRA:          -4.191
INTER:                  -4.191
INTRA:                   0.000
UNBOUND:                 0.000

$$$$

     RDKit          3D

 52 49  0  0  0  0  0  0  0  0999 V2000
   47.8418    8.3757   20.7634 Na  0  0  0  0  0 15  0  0  0  0  0  0
   49.3309    8.2553   20.3425 C   0  0  0  0  0  0  0  0  0  0  0  0
   49.9976    8.6313   21.3469 O   0  0  0  0  0  0  0  0  0  0  0  0
   49.7315    7.9611   19.1791 O   0  0  0  0  0  0  0  0  0  0  0  0
   47.8060    8.1384   20.5410 C   0  0  0  0  0  0  0  0  0  0  0  0
   47.4441    7.3305   21.8001 C   0  0  0  0  0  0  0  0  0  0  0  0
   47.2487    9.5715   20.6571 C   0  0  0  0  0  0  0  0  0  0  0  0
   47.3919   10.3812   19.3636 C   0  0  0  0  0  0  0  0  0  0  0  0
   47.5527    5.8094   21.6364 C   0  0  0  0  0  0  0  0  0  0  0  0
   48.9731    5.2828   21.5196 C   0  0  0  0  0  0  0  0  0  0  0  0
   46.7441   11.7516   19.4929 C   0  0  0  0  0  0  0  0  0  0  0  0
   48.2987    7.8042   19.0134 C   0  0  0  0  0  0  0  0  0  0  0  0
   49.1226    7.3441   18.2382 O   0  0  0  0  0  0  0  0  0  0  0  0
   48.6064    8.3661   20.3871 C   0  0  0  0  0  0  0  0  0  0  0  0
   46.9925    7.7820   18.6964 O   0  0  0  0  0  0  0  0  0  0  0  0
   47.6115    9.4380   20.8660 C   0  0  0  0  0  0  0  0  0  0  0  0
   48.7743    7.2113   21.3919 C   0  0  0  0  0  0  0  0  0  0  0  0
   47.6967   10.7243   20.0367 C   0  0  0  0  0  0  0  0  0  0  0  0
   47.4805    6.4743   21.7518 C   0  0  0  0  0  0  0  0  0  0  0  0
   47.7485    5.3296   22.7182 C   0  0  0  0  0  0  0  0  0  0  0  0
   46.7258   11.7782   20.5465 C   0  0  0  0  0  0  0  0  0  0  0  0
   47.3545    7.6542   19.6655 H   0  0  0  0  0  0  0  0  0  0  0  0
   46.3996    7.5428   22.0639 H   0  0  0  0  0  0  0  0  0  0  0  0
   48.0441    7.6484   22.6614 H   0  0  0  0  0  0  0  0  0  0  0  0
   47.7395   10.1085   21.4789 H   0  0  0  0  0  0  0  0  0  0  0  0
   46.1822    9.5189   20.9119 H   0  0  0  0  0  0  0  0  0  0  0  0
   46.9241    9.8406   18.5326 H   0  0  0  0  0  0  0  0  0  0  0  0
   48.4491   10.5166   19.1112 H   0  0  0  0  0  0  0  0  0  0  0  0
   46.9687    5.4833   20.7680 H   0  0  0  0  0  0  0  0  0  0  0  0
   47.0908    5.3426   22.5153 H   0  0  0  0  0  0  0  0  0  0  0  0
   49.6050    5.6629   22.3282 H   0  0  0  0  0  0  0  0  0  0  0  0
   49.4249    5.5532   20.5623 H   0  0  0  0  0  0  0  0  0  0  0  0
   48.9716    4.1893   21.5787 H   0  0  0  0  0  0  0  0  0  0  0  0
   46.8586   12.3142   18.5611 H   0  0  0  0  0  0  0  0  0  0  0  0
   45.6742   11.6619   19.7059 H   0  0  0  0  0  0  0  0  0  0  0  0
   47.2082   12.3299   20.2983 H   0  0  0  0  0  0  0  0  0  0  0  0
   49.5858    8.8554   20.2895 H   0  0  0  0  0  0  0  0  0  0  0  0
   46.9722    7.3673   17.8086 H   0  0  0  0  0  0  0  0  0  0  0  0
   47.8279    9.6833   21.9136 H   0  0  0  0  0  0  0  0  0  0  0  0
   46.5828    9.0597   20.8362 H   0  0  0  0  0  0  0  0  0  0  0  0
   49.2211    7.6107   22.3115 H   0  0  0  0  0  0  0  0  0  0  0  0
   49.4942    6.4873   20.9878 H   0  0  0  0  0  0  0  0  0  0  0  0
   48.7156   11.1265   20.0789 H   0  0  0  0  0  0  0  0  0  0  0  0
   47.4739   10.5162   18.9845 H   0  0  0  0  0  0  0  0  0  0  0  0
   47.0086    6.0700   20.8500 H   0  0  0  0  0  0  0  0  0  0  0  0
   46.7661    7.1623   22.2160 H   0  0  0  0  0  0  0  0  0  0  0  0
   48.4316    4.5962   22.2781 H   0  0  0  0  0  0  0  0  0  0  0  0
   46.8139    4.8169   22.9664 H   0  0  0  0  0  0  0  0  0  0  0  0
   48.1915    5.6977   23.6492 H   0  0  0  0  0  0  0  0  0  0  0  0
   45.6928   11.4204   20.4882 H   0  0  0  0  0  0  0  0  0  0  0  0
   46.9413   12.0398   21.5873 H   0  0  0  0  0  0  0  0  0  0  0  0
   46.8045   12.6886   19.9442 H   0  0  0  0  0  0  0  0  0  0  0  0
  3  2  1  0
  4  2  2  0
  5  2  1  0
  6  5  1  0
  7  5  1  0
  8  7  1  0
  9  6  1  0
 10  9  1  0
 11  8  1  0
 13 12  2  0
 14 12  1  0
 15 12  1  0
 16 14  1  0
 17 14  1  0
 18 16  1  0
 19 17  1  0
 20 19  1  0
 21 18  1  0
  5 22  1  0
  6 23  1  0
  6 24  1  0
  7 25  1  0
  7 26  1  0
  8 27  1  0
  8 28  1  0
  9 29  1  0
  9 30  1  0
 10 31  1  0
 10 32  1  0
 10 33  1  0
 11 34  1  0
 11 35  1  0
 11 36  1  0
 14 37  1  0
 15 38  1  0
 16 39  1  0
 16 40  1  0
 17 41  1  0
 17 42  1  0
 18 43  1  0
 18 44  1  0
 19 45  1  0
 19 46  1  0
 20 47  1  0
 20 48  1  0
 20 49  1  0
 21 50  1  0
 21 51  1  0
 21 52  1  0
M  CHG  2   1   1   3  -1
M  END
> <Uni-Dock RESULT> 
ENERGY=   -4.119  LOWER_BOUND=    8.904  UPPER_BOUND=   10.425
INTER + INTRA:          -4.119
INTER:                  -4.119
INTRA:                   0.000
UNBOUND:                 0.000

$$$$
