
     RDKit          3D

 52 49  0  0  0  0  0  0  0  0999 V2000
   44.9656    4.5534   10.7068 Na  0  0  0  0  0 15  0  0  0  0  0  0
   43.1972    4.5167   12.0080 C   0  0  0  0  0  0  0  0  0  0  0  0
   42.2171    5.0413   11.4086 O   0  0  0  0  0  0  0  0  0  0  0  0
   43.3309    4.2729   13.2423 O   0  0  0  0  0  0  0  0  0  0  0  0
   44.3920    4.0810   11.1221 C   0  0  0  0  0  0  0  0  0  0  0  0
   44.1710    4.3577    9.6242 C   0  0  0  0  0  0  0  0  0  0  0  0
   45.7314    4.6070   11.6767 C   0  0  0  0  0  0  0  0  0  0  0  0
   46.0773    6.0758   11.4006 C   0  0  0  0  0  0  0  0  0  0  0  0
   45.2566    3.8252    8.6818 C   0  0  0  0  0  0  0  0  0  0  0  0
   45.4058    2.3121    8.7193 C   0  0  0  0  0  0  0  0  0  0  0  0
   45.1386    7.0794   12.0484 C   0  0  0  0  0  0  0  0  0  0  0  0
   44.3769    3.8215   11.7188 C   0  0  0  0  0  0  0  0  0  0  0  0
   44.9546    2.9243   12.3114 O   0  0  0  0  0  0  0  0  0  0  0  0
   44.9404    4.6217   10.5644 C   0  0  0  0  0  0  0  0  0  0  0  0
   43.1146    4.1494   12.0493 O   0  0  0  0  0  0  0  0  0  0  0  0
   44.8206    6.1424   10.7951 C   0  0  0  0  0  0  0  0  0  0  0  0
   44.2226    4.2215    9.2594 C   0  0  0  0  0  0  0  0  0  0  0  0
   45.8584    6.7303   11.7598 C   0  0  0  0  0  0  0  0  0  0  0  0
   44.3369    2.7405    8.8772 C   0  0  0  0  0  0  0  0  0  0  0  0
   45.7658    2.2831    8.6291 C   0  0  0  0  0  0  0  0  0  0  0  0
   45.6718    6.3309   13.2138 C   0  0  0  0  0  0  0  0  0  0  0  0
   44.4087    2.9891   11.2508 H   0  0  0  0  0  0  0  0  0  0  0  0
   43.2124    3.9189    9.3166 H   0  0  0  0  0  0  0  0  0  0  0  0
   44.0673    5.4372    9.4586 H   0  0  0  0  0  0  0  0  0  0  0  0
   46.5394    3.9950   11.2553 H   0  0  0  0  0  0  0  0  0  0  0  0
   45.7831    4.4382   12.7597 H   0  0  0  0  0  0  0  0  0  0  0  0
   47.0880    6.2589   11.7867 H   0  0  0  0  0  0  0  0  0  0  0  0
   46.1266    6.2668   10.3236 H   0  0  0  0  0  0  0  0  0  0  0  0
   44.9952    4.1211    7.6584 H   0  0  0  0  0  0  0  0  0  0  0  0
   46.2227    4.2924    8.8990 H   0  0  0  0  0  0  0  0  0  0  0  0
   46.1145    1.9860    7.9511 H   0  0  0  0  0  0  0  0  0  0  0  0
   44.4485    1.8175    8.5280 H   0  0  0  0  0  0  0  0  0  0  0  0
   45.7864    1.9698    9.6859 H   0  0  0  0  0  0  0  0  0  0  0  0
   44.1529    7.0692   11.5764 H   0  0  0  0  0  0  0  0  0  0  0  0
   45.0207    6.8791   13.1178 H   0  0  0  0  0  0  0  0  0  0  0  0
   45.5408    8.0919   11.9381 H   0  0  0  0  0  0  0  0  0  0  0  0
   46.0053    4.3750   10.4794 H   0  0  0  0  0  0  0  0  0  0  0  0
   42.8970    3.5389   12.7845 H   0  0  0  0  0  0  0  0  0  0  0  0
   44.9639    6.6528    9.8337 H   0  0  0  0  0  0  0  0  0  0  0  0
   43.8131    6.4115   11.1350 H   0  0  0  0  0  0  0  0  0  0  0  0
   44.6210    4.8217    8.4312 H   0  0  0  0  0  0  0  0  0  0  0  0
   43.1564    4.4713    9.3359 H   0  0  0  0  0  0  0  0  0  0  0  0
   45.7930    7.8237   11.6984 H   0  0  0  0  0  0  0  0  0  0  0  0
   46.8692    6.4604   11.4326 H   0  0  0  0  0  0  0  0  0  0  0  0
   43.7574    2.5785    7.9602 H   0  0  0  0  0  0  0  0  0  0  0  0
   43.8793    2.1092    9.6470 H   0  0  0  0  0  0  0  0  0  0  0  0
   45.7703    1.2554    8.2515 H   0  0  0  0  0  0  0  0  0  0  0  0
   46.2591    2.9185    7.8869 H   0  0  0  0  0  0  0  0  0  0  0  0
   46.3581    2.2989    9.5485 H   0  0  0  0  0  0  0  0  0  0  0  0
   46.3340    6.9254   13.8519 H   0  0  0  0  0  0  0  0  0  0  0  0
   45.9244    5.2805   13.3776 H   0  0  0  0  0  0  0  0  0  0  0  0
   44.6426    6.5024   13.5437 H   0  0  0  0  0  0  0  0  0  0  0  0
  3  2  1  0
  4  2  2  0
  5  2  1  0
  6  5  1  0
  7  5  1  0
  8  7  1  0
  9  6  1  0
 10  9  1  0
 11  8  1  0
 13 12  2  0
 14 12  1  0
 15 12  1  0
 16 14  1  0
 17 14  1  0
 18 16  1  0
 19 17  1  0
 20 19  1  0
 21 18  1  0
  5 22  1  0
  6 23  1  0
  6 24  1  0
  7 25  1  0
  7 26  1  0
  8 27  1  0
  8 28  1  0
  9 29  1  0
  9 30  1  0
 10 31  1  0
 10 32  1  0
 10 33  1  0
 11 34  1  0
 11 35  1  0
 11 36  1  0
 14 37  1  0
 15 38  1  0
 16 39  1  0
 16 40  1  0
 17 41  1  0
 17 42  1  0
 18 43  1  0
 18 44  1  0
 19 45  1  0
 19 46  1  0
 20 47  1  0
 20 48  1  0
 20 49  1  0
 21 50  1  0
 21 51  1  0
 21 52  1  0
M  CHG  2   1   1   3  -1
M  END
> <Uni-Dock RESULT> 
ENERGY=   -6.150  LOWER_BOUND=    0.000  UPPER_BOUND=    0.000
INTER + INTRA:          -6.150
INTER:                  -6.150
INTRA:                   0.000
UNBOUND:                 0.000

$$$$

     RDKit          3D

 52 49  0  0  0  0  0  0  0  0999 V2000
   48.2054    4.7877   19.0519 Na  0  0  0  0  0 15  0  0  0  0  0  0
   49.6388    5.7386   17.6869 C   0  0  0  0  0  0  0  0  0  0  0  0
   49.1371    6.7961   17.2125 O   0  0  0  0  0  0  0  0  0  0  0  0
   50.6431    5.0870   17.2776 O   0  0  0  0  0  0  0  0  0  0  0  0
   48.9620    5.1667   18.9585 C   0  0  0  0  0  0  0  0  0  0  0  0
   47.7715    6.0116   19.4461 C   0  0  0  0  0  0  0  0  0  0  0  0
   48.6580    3.6619   18.8118 C   0  0  0  0  0  0  0  0  0  0  0  0
   47.4212    3.2721   17.9923 C   0  0  0  0  0  0  0  0  0  0  0  0
   47.1461    5.5754   20.7761 C   0  0  0  0  0  0  0  0  0  0  0  0
   48.1067    5.6489   21.9529 C   0  0  0  0  0  0  0  0  0  0  0  0
   47.4926    3.6470   16.5218 C   0  0  0  0  0  0  0  0  0  0  0  0
   49.5602    4.9421   18.8349 C   0  0  0  0  0  0  0  0  0  0  0  0
   50.4058    4.2941   19.4309 O   0  0  0  0  0  0  0  0  0  0  0  0
   48.0664    4.8656   19.0650 C   0  0  0  0  0  0  0  0  0  0  0  0
   49.9271    5.8455   17.9079 O   0  0  0  0  0  0  0  0  0  0  0  0
   47.2849    4.6414   17.7539 C   0  0  0  0  0  0  0  0  0  0  0  0
   47.5840    6.1550   19.7601 C   0  0  0  0  0  0  0  0  0  0  0  0
   47.3162    3.2018   17.2247 C   0  0  0  0  0  0  0  0  0  0  0  0
   48.2331    6.4483   21.1185 C   0  0  0  0  0  0  0  0  0  0  0  0
   47.9635    5.3800   22.1667 C   0  0  0  0  0  0  0  0  0  0  0  0
   48.6645    2.7515   16.6883 C   0  0  0  0  0  0  0  0  0  0  0  0
   49.7525    5.2523   19.7179 H   0  0  0  0  0  0  0  0  0  0  0  0
   48.0931    7.0565   19.5512 H   0  0  0  0  0  0  0  0  0  0  0  0
   46.9860    6.0210   18.6803 H   0  0  0  0  0  0  0  0  0  0  0  0
   48.5319    3.2394   19.8171 H   0  0  0  0  0  0  0  0  0  0  0  0
   49.5279    3.1409   18.3924 H   0  0  0  0  0  0  0  0  0  0  0  0
   47.3063    2.1828   18.0592 H   0  0  0  0  0  0  0  0  0  0  0  0
   46.5140    3.6986   18.4326 H   0  0  0  0  0  0  0  0  0  0  0  0
   46.2938    6.2338   20.9845 H   0  0  0  0  0  0  0  0  0  0  0  0
   46.7394    4.5618   20.7001 H   0  0  0  0  0  0  0  0  0  0  0  0
   47.5751    5.4317   22.8851 H   0  0  0  0  0  0  0  0  0  0  0  0
   48.5472    6.6471   22.0395 H   0  0  0  0  0  0  0  0  0  0  0  0
   48.9160    4.9195   21.8569 H   0  0  0  0  0  0  0  0  0  0  0  0
   47.4280    4.7287   16.3802 H   0  0  0  0  0  0  0  0  0  0  0  0
   48.4189    3.2853   16.0649 H   0  0  0  0  0  0  0  0  0  0  0  0
   46.6530    3.1981   15.9809 H   0  0  0  0  0  0  0  0  0  0  0  0
   47.8763    4.0095   19.7231 H   0  0  0  0  0  0  0  0  0  0  0  0
   50.9053    5.7854   17.8940 H   0  0  0  0  0  0  0  0  0  0  0  0
   46.2293    4.8857   17.9315 H   0  0  0  0  0  0  0  0  0  0  0  0
   47.6274    5.3261   16.9686 H   0  0  0  0  0  0  0  0  0  0  0  0
   46.4971    6.1015   19.9032 H   0  0  0  0  0  0  0  0  0  0  0  0
   47.7664    7.0157   19.1036 H   0  0  0  0  0  0  0  0  0  0  0  0
   46.5859    3.1275   16.4092 H   0  0  0  0  0  0  0  0  0  0  0  0
   46.9823    2.5083   18.0052 H   0  0  0  0  0  0  0  0  0  0  0  0
   47.8378    7.4026   21.4872 H   0  0  0  0  0  0  0  0  0  0  0  0
   49.3143    6.5851   21.0056 H   0  0  0  0  0  0  0  0  0  0  0  0
   48.3537    5.7009   23.1380 H   0  0  0  0  0  0  0  0  0  0  0  0
   46.8897    5.1986   22.2765 H   0  0  0  0  0  0  0  0  0  0  0  0
   48.4512    4.4348   21.9117 H   0  0  0  0  0  0  0  0  0  0  0  0
   48.5593    1.7906   16.1740 H   0  0  0  0  0  0  0  0  0  0  0  0
   49.3897    2.6086   17.4931 H   0  0  0  0  0  0  0  0  0  0  0  0
   49.0686    3.4743   15.9728 H   0  0  0  0  0  0  0  0  0  0  0  0
  3  2  1  0
  4  2  2  0
  5  2  1  0
  6  5  1  0
  7  5  1  0
  8  7  1  0
  9  6  1  0
 10  9  1  0
 11  8  1  0
 13 12  2  0
 14 12  1  0
 15 12  1  0
 16 14  1  0
 17 14  1  0
 18 16  1  0
 19 17  1  0
 20 19  1  0
 21 18  1  0
  5 22  1  0
  6 23  1  0
  6 24  1  0
  7 25  1  0
  7 26  1  0
  8 27  1  0
  8 28  1  0
  9 29  1  0
  9 30  1  0
 10 31  1  0
 10 32  1  0
 10 33  1  0
 11 34  1  0
 11 35  1  0
 11 36  1  0
 14 37  1  0
 15 38  1  0
 16 39  1  0
 16 40  1  0
 17 41  1  0
 17 42  1  0
 18 43  1  0
 18 44  1  0
 19 45  1  0
 19 46  1  0
 20 47  1  0
 20 48  1  0
 20 49  1  0
 21 50  1  0
 21 51  1  0
 21 52  1  0
M  CHG  2   1   1   3  -1
M  END
> <Uni-Dock RESULT> 
ENERGY=   -5.009  LOWER_BOUND=    7.228  UPPER_BOUND=    9.678
INTER + INTRA:          -5.009
INTER:                  -5.009
INTRA:                   0.000
UNBOUND:                 0.000

$$$$

     RDKit          3D

 52 49  0  0  0  0  0  0  0  0999 V2000
   44.5168    4.2829   10.2971 Na  0  0  0  0  0 15  0  0  0  0  0  0
   44.1429    2.8427   11.9120 C   0  0  0  0  0  0  0  0  0  0  0  0
   43.1436    2.1274   11.6211 O   0  0  0  0  0  0  0  0  0  0  0  0
   44.7022    3.0006   13.0360 O   0  0  0  0  0  0  0  0  0  0  0  0
   44.8014    3.6137   10.7398 C   0  0  0  0  0  0  0  0  0  0  0  0
   44.1161    3.3614    9.3849 C   0  0  0  0  0  0  0  0  0  0  0  0
   45.0052    5.1032   11.0835 C   0  0  0  0  0  0  0  0  0  0  0  0
   43.7800    6.0209   10.9835 C   0  0  0  0  0  0  0  0  0  0  0  0
   44.8030    3.9861    8.1651 C   0  0  0  0  0  0  0  0  0  0  0  0
   46.2107    3.4625    7.9253 C   0  0  0  0  0  0  0  0  0  0  0  0
   42.6662    5.6984   11.9650 C   0  0  0  0  0  0  0  0  0  0  0  0
   45.1650    3.5571   11.2767 C   0  0  0  0  0  0  0  0  0  0  0  0
   46.3305    3.7500   11.5838 O   0  0  0  0  0  0  0  0  0  0  0  0
   44.4129    4.2734   10.1760 C   0  0  0  0  0  0  0  0  0  0  0  0
   44.4443    2.6135   11.9095 O   0  0  0  0  0  0  0  0  0  0  0  0
   43.0732    4.8580   10.6696 C   0  0  0  0  0  0  0  0  0  0  0  0
   44.1717    3.3050    9.0002 C   0  0  0  0  0  0  0  0  0  0  0  0
   43.1972    6.1538   11.4813 C   0  0  0  0  0  0  0  0  0  0  0  0
   45.4384    2.7150    8.3679 C   0  0  0  0  0  0  0  0  0  0  0  0
   46.3601    3.7603    7.7592 C   0  0  0  0  0  0  0  0  0  0  0  0
   43.8167    5.9840   12.8582 C   0  0  0  0  0  0  0  0  0  0  0  0
   45.8044    3.1668   10.6837 H   0  0  0  0  0  0  0  0  0  0  0  0
   44.0463    2.2786    9.2151 H   0  0  0  0  0  0  0  0  0  0  0  0
   43.0802    3.7210    9.4214 H   0  0  0  0  0  0  0  0  0  0  0  0
   45.7731    5.5068   10.4107 H   0  0  0  0  0  0  0  0  0  0  0  0
   45.4296    5.2030   12.0904 H   0  0  0  0  0  0  0  0  0  0  0  0
   44.1155    7.0476   11.1769 H   0  0  0  0  0  0  0  0  0  0  0  0
   43.3782    6.0217    9.9650 H   0  0  0  0  0  0  0  0  0  0  0  0
   44.1958    3.7618    7.2795 H   0  0  0  0  0  0  0  0  0  0  0  0
   44.8294    5.0772    8.2507 H   0  0  0  0  0  0  0  0  0  0  0  0
   46.6042    3.8617    6.9848 H   0  0  0  0  0  0  0  0  0  0  0  0
   46.2181    2.3701    7.8584 H   0  0  0  0  0  0  0  0  0  0  0  0
   46.8936    3.7660    8.7240 H   0  0  0  0  0  0  0  0  0  0  0  0
   42.1678    4.7594   11.7116 H   0  0  0  0  0  0  0  0  0  0  0  0
   43.0470    5.6315   12.9888 H   0  0  0  0  0  0  0  0  0  0  0  0
   41.9064    6.4864   11.9394 H   0  0  0  0  0  0  0  0  0  0  0  0
   45.0397    5.1053    9.8339 H   0  0  0  0  0  0  0  0  0  0  0  0
   45.0695    2.2392   12.5650 H   0  0  0  0  0  0  0  0  0  0  0  0
   42.4536    5.0957    9.7950 H   0  0  0  0  0  0  0  0  0  0  0  0
   42.5094    4.1171   11.2493 H   0  0  0  0  0  0  0  0  0  0  0  0
   43.6067    3.8251    8.2159 H   0  0  0  0  0  0  0  0  0  0  0  0
   43.5395    2.4722    9.3348 H   0  0  0  0  0  0  0  0  0  0  0  0
   42.1889    6.5660   11.6127 H   0  0  0  0  0  0  0  0  0  0  0  0
   43.7660    6.8989   10.9130 H   0  0  0  0  0  0  0  0  0  0  0  0
   45.1333    2.0195    7.5766 H   0  0  0  0  0  0  0  0  0  0  0  0
   45.9935    2.1216    9.1030 H   0  0  0  0  0  0  0  0  0  0  0  0
   47.1826    3.2709    7.2275 H   0  0  0  0  0  0  0  0  0  0  0  0
   45.8223    4.3905    7.0440 H   0  0  0  0  0  0  0  0  0  0  0  0
   46.8003    4.4035    8.5265 H   0  0  0  0  0  0  0  0  0  0  0  0
   43.7069    6.9093   13.4333 H   0  0  0  0  0  0  0  0  0  0  0  0
   44.8862    5.7696   12.7939 H   0  0  0  0  0  0  0  0  0  0  0  0
   43.3281    5.1798   13.4169 H   0  0  0  0  0  0  0  0  0  0  0  0
  3  2  1  0
  4  2  2  0
  5  2  1  0
  6  5  1  0
  7  5  1  0
  8  7  1  0
  9  6  1  0
 10  9  1  0
 11  8  1  0
 13 12  2  0
 14 12  1  0
 15 12  1  0
 16 14  1  0
 17 14  1  0
 18 16  1  0
 19 17  1  0
 20 19  1  0
 21 18  1  0
  5 22  1  0
  6 23  1  0
  6 24  1  0
  7 25  1  0
  7 26  1  0
  8 27  1  0
  8 28  1  0
  9 29  1  0
  9 30  1  0
 10 31  1  0
 10 32  1  0
 10 33  1  0
 11 34  1  0
 11 35  1  0
 11 36  1  0
 14 37  1  0
 15 38  1  0
 16 39  1  0
 16 40  1  0
 17 41  1  0
 17 42  1  0
 18 43  1  0
 18 44  1  0
 19 45  1  0
 19 46  1  0
 20 47  1  0
 20 48  1  0
 20 49  1  0
 21 50  1  0
 21 51  1  0
 21 52  1  0
M  CHG  2   1   1   3  -1
M  END
> <Uni-Dock RESULT> 
ENERGY=   -5.000  LOWER_BOUND=    1.378  UPPER_BOUND=    1.781
INTER + INTRA:          -5.000
INTER:                  -5.000
INTRA:                   0.000
UNBOUND:                 0.000

$$$$

     RDKit          3D

 52 49  0  0  0  0  0  0  0  0999 V2000
   45.3310    5.3018   11.9764 Na  0  0  0  0  0 15  0  0  0  0  0  0
   43.4526    5.8376   10.9732 C   0  0  0  0  0  0  0  0  0  0  0  0
   42.6761    6.3990   11.7959 O   0  0  0  0  0  0  0  0  0  0  0  0
   43.1806    5.3397    9.8423 O   0  0  0  0  0  0  0  0  0  0  0  0
   44.9476    5.7680   11.3760 C   0  0  0  0  0  0  0  0  0  0  0  0
   45.2413    6.4212   12.7384 C   0  0  0  0  0  0  0  0  0  0  0  0
   45.5122    4.3416   11.2180 C   0  0  0  0  0  0  0  0  0  0  0  0
   45.1798    3.3287   12.3211 C   0  0  0  0  0  0  0  0  0  0  0  0
   46.7209    6.5069   13.1303 C   0  0  0  0  0  0  0  0  0  0  0  0
   47.5554    7.3463   12.1752 C   0  0  0  0  0  0  0  0  0  0  0  0
   43.7040    2.9902   12.4454 C   0  0  0  0  0  0  0  0  0  0  0  0
   44.8228    5.6663   10.7454 C   0  0  0  0  0  0  0  0  0  0  0  0
   45.4697    5.5947    9.7128 O   0  0  0  0  0  0  0  0  0  0  0  0
   45.3353    5.3402   12.1315 C   0  0  0  0  0  0  0  0  0  0  0  0
   43.5498    6.1012   10.7193 O   0  0  0  0  0  0  0  0  0  0  0  0
   44.4126    4.3544   12.8778 C   0  0  0  0  0  0  0  0  0  0  0  0
   45.4935    6.6420   12.9433 C   0  0  0  0  0  0  0  0  0  0  0  0
   44.5486    2.8901   12.4410 C   0  0  0  0  0  0  0  0  0  0  0  0
   46.4532    7.6760   12.3415 C   0  0  0  0  0  0  0  0  0  0  0  0
   47.8855    7.1799   12.2187 C   0  0  0  0  0  0  0  0  0  0  0  0
   44.0150    2.5900   11.0504 C   0  0  0  0  0  0  0  0  0  0  0  0
   45.4383    6.3841   10.6089 H   0  0  0  0  0  0  0  0  0  0  0  0
   44.8316    7.4402   12.7427 H   0  0  0  0  0  0  0  0  0  0  0  0
   44.7037    5.8844   13.5299 H   0  0  0  0  0  0  0  0  0  0  0  0
   46.6059    4.4123   11.1564 H   0  0  0  0  0  0  0  0  0  0  0  0
   45.2007    3.9176   10.2551 H   0  0  0  0  0  0  0  0  0  0  0  0
   45.7225    2.4016   12.0974 H   0  0  0  0  0  0  0  0  0  0  0  0
   45.5568    3.6726   13.2898 H   0  0  0  0  0  0  0  0  0  0  0  0
   46.7839    6.9555   14.1293 H   0  0  0  0  0  0  0  0  0  0  0  0
   47.1588    5.5070   13.2147 H   0  0  0  0  0  0  0  0  0  0  0  0
   48.5721    7.4591   12.5653 H   0  0  0  0  0  0  0  0  0  0  0  0
   47.1272    8.3461   12.0533 H   0  0  0  0  0  0  0  0  0  0  0  0
   47.6302    6.8782   11.1895 H   0  0  0  0  0  0  0  0  0  0  0  0
   43.1314    3.8325   12.8417 H   0  0  0  0  0  0  0  0  0  0  0  0
   43.2813    2.6987   11.4790 H   0  0  0  0  0  0  0  0  0  0  0  0
   43.5702    2.1525   13.1377 H   0  0  0  0  0  0  0  0  0  0  0  0
   46.3170    4.8655   12.0182 H   0  0  0  0  0  0  0  0  0  0  0  0
   43.3822    6.2835    9.7710 H   0  0  0  0  0  0  0  0  0  0  0  0
   44.6616    4.3856   13.9467 H   0  0  0  0  0  0  0  0  0  0  0  0
   43.3627    4.6619   12.8011 H   0  0  0  0  0  0  0  0  0  0  0  0
   45.8440    6.3954   13.9538 H   0  0  0  0  0  0  0  0  0  0  0  0
   44.5126    7.1195   13.0653 H   0  0  0  0  0  0  0  0  0  0  0  0
   43.9923    2.2726   13.1572 H   0  0  0  0  0  0  0  0  0  0  0  0
   45.5964    2.5751   12.5071 H   0  0  0  0  0  0  0  0  0  0  0  0
   46.4482    8.5630   12.9866 H   0  0  0  0  0  0  0  0  0  0  0  0
   46.0952    8.0062   11.3600 H   0  0  0  0  0  0  0  0  0  0  0  0
   48.5383    7.9961   11.8923 H   0  0  0  0  0  0  0  0  0  0  0  0
   48.2583    6.8121   13.1798 H   0  0  0  0  0  0  0  0  0  0  0  0
   47.9704    6.3757   11.4823 H   0  0  0  0  0  0  0  0  0  0  0  0
   43.9863    1.5076   10.8875 H   0  0  0  0  0  0  0  0  0  0  0  0
   44.6549    3.0159   10.2739 H   0  0  0  0  0  0  0  0  0  0  0  0
   42.9993    2.9771   10.9228 H   0  0  0  0  0  0  0  0  0  0  0  0
  3  2  1  0
  4  2  2  0
  5  2  1  0
  6  5  1  0
  7  5  1  0
  8  7  1  0
  9  6  1  0
 10  9  1  0
 11  8  1  0
 13 12  2  0
 14 12  1  0
 15 12  1  0
 16 14  1  0
 17 14  1  0
 18 16  1  0
 19 17  1  0
 20 19  1  0
 21 18  1  0
  5 22  1  0
  6 23  1  0
  6 24  1  0
  7 25  1  0
  7 26  1  0
  8 27  1  0
  8 28  1  0
  9 29  1  0
  9 30  1  0
 10 31  1  0
 10 32  1  0
 10 33  1  0
 11 34  1  0
 11 35  1  0
 11 36  1  0
 14 37  1  0
 15 38  1  0
 16 39  1  0
 16 40  1  0
 17 41  1  0
 17 42  1  0
 18 43  1  0
 18 44  1  0
 19 45  1  0
 19 46  1  0
 20 47  1  0
 20 48  1  0
 20 49  1  0
 21 50  1  0
 21 51  1  0
 21 52  1  0
M  CHG  2   1   1   3  -1
M  END
> <Uni-Dock RESULT> 
ENERGY=   -4.638  LOWER_BOUND=    1.919  UPPER_BOUND=    3.872
INTER + INTRA:          -4.638
INTER:                  -4.638
INTRA:                   0.000
UNBOUND:                 0.000

$$$$

     RDKit          3D

 52 49  0  0  0  0  0  0  0  0999 V2000
   47.7229   11.5699   19.5726 Na  0  0  0  0  0 15  0  0  0  0  0  0
   47.5295   13.3681   20.8180 C   0  0  0  0  0  0  0  0  0  0  0  0
   46.3083   13.6054   21.0357 O   0  0  0  0  0  0  0  0  0  0  0  0
   48.5239   14.1352   20.9717 O   0  0  0  0  0  0  0  0  0  0  0  0
   47.8753   11.9403   20.3239 C   0  0  0  0  0  0  0  0  0  0  0  0
   46.6428   11.0280   20.1902 C   0  0  0  0  0  0  0  0  0  0  0  0
   48.7807   11.9753   19.0760 C   0  0  0  0  0  0  0  0  0  0  0  0
   48.1081   12.2663   17.7283 C   0  0  0  0  0  0  0  0  0  0  0  0
   46.9331    9.5646   19.8379 C   0  0  0  0  0  0  0  0  0  0  0  0
   47.7671    8.8411   20.8839 C   0  0  0  0  0  0  0  0  0  0  0  0
   47.4903   13.6495   17.6153 C   0  0  0  0  0  0  0  0  0  0  0  0
   48.3760   12.2845   20.5572 C   0  0  0  0  0  0  0  0  0  0  0  0
   49.5308   12.0615   20.8837 O   0  0  0  0  0  0  0  0  0  0  0  0
   47.5833   11.5040   19.5311 C   0  0  0  0  0  0  0  0  0  0  0  0
   47.6821   13.2724   21.1511 O   0  0  0  0  0  0  0  0  0  0  0  0
   46.9366   12.4213   18.4725 C   0  0  0  0  0  0  0  0  0  0  0  0
   46.5023   10.6649   20.2423 C   0  0  0  0  0  0  0  0  0  0  0  0
   47.8984   12.9369   17.3944 C   0  0  0  0  0  0  0  0  0  0  0  0
   47.0288    9.6528   21.2675 C   0  0  0  0  0  0  0  0  0  0  0  0
   47.9369    8.5915   20.6661 C   0  0  0  0  0  0  0  0  0  0  0  0
   48.9183   13.9504   17.8852 C   0  0  0  0  0  0  0  0  0  0  0  0
   48.4887   11.5380   21.1429 H   0  0  0  0  0  0  0  0  0  0  0  0
   46.0822   11.0429   21.1345 H   0  0  0  0  0  0  0  0  0  0  0  0
   45.9594   11.4372   19.4357 H   0  0  0  0  0  0  0  0  0  0  0  0
   49.2807   11.0018   18.9896 H   0  0  0  0  0  0  0  0  0  0  0  0
   49.5927   12.6993   19.2197 H   0  0  0  0  0  0  0  0  0  0  0  0
   48.8724   12.1715   16.9466 H   0  0  0  0  0  0  0  0  0  0  0  0
   47.3497   11.5097   17.5020 H   0  0  0  0  0  0  0  0  0  0  0  0
   45.9743    9.0410   19.7383 H   0  0  0  0  0  0  0  0  0  0  0  0
   47.4260    9.4902   18.8632 H   0  0  0  0  0  0  0  0  0  0  0  0
   47.8474    7.7790   20.6307 H   0  0  0  0  0  0  0  0  0  0  0  0
   47.3091    8.9188   21.8749 H   0  0  0  0  0  0  0  0  0  0  0  0
   48.7821    9.2451   20.9380 H   0  0  0  0  0  0  0  0  0  0  0  0
   46.6030   13.7452   18.2462 H   0  0  0  0  0  0  0  0  0  0  0  0
   48.2073   14.4281   17.8932 H   0  0  0  0  0  0  0  0  0  0  0  0
   47.1758   13.8347   16.5829 H   0  0  0  0  0  0  0  0  0  0  0  0
   48.2797   10.8316   19.0163 H   0  0  0  0  0  0  0  0  0  0  0  0
   48.3191   13.6580   21.7884 H   0  0  0  0  0  0  0  0  0  0  0  0
   46.1566   11.8529   17.9490 H   0  0  0  0  0  0  0  0  0  0  0  0
   46.4285   13.2710   18.9445 H   0  0  0  0  0  0  0  0  0  0  0  0
   45.9177   10.1195   19.4903 H   0  0  0  0  0  0  0  0  0  0  0  0
   45.7981   11.3329   20.7551 H   0  0  0  0  0  0  0  0  0  0  0  0
   47.2987   13.4138   16.6091 H   0  0  0  0  0  0  0  0  0  0  0  0
   48.4170   12.0949   16.9213 H   0  0  0  0  0  0  0  0  0  0  0  0
   46.1677    9.1520   21.7266 H   0  0  0  0  0  0  0  0  0  0  0  0
   47.5552   10.1674   22.0791 H   0  0  0  0  0  0  0  0  0  0  0  0
   48.1850    7.8387   21.4212 H   0  0  0  0  0  0  0  0  0  0  0  0
   47.4476    8.0832   19.8293 H   0  0  0  0  0  0  0  0  0  0  0  0
   48.8768    9.0223   20.3092 H   0  0  0  0  0  0  0  0  0  0  0  0
   49.4420   14.3955   17.0328 H   0  0  0  0  0  0  0  0  0  0  0  0
   49.6751   13.4836   18.5203 H   0  0  0  0  0  0  0  0  0  0  0  0
   48.4373   14.7586   18.4447 H   0  0  0  0  0  0  0  0  0  0  0  0
  3  2  1  0
  4  2  2  0
  5  2  1  0
  6  5  1  0
  7  5  1  0
  8  7  1  0
  9  6  1  0
 10  9  1  0
 11  8  1  0
 13 12  2  0
 14 12  1  0
 15 12  1  0
 16 14  1  0
 17 14  1  0
 18 16  1  0
 19 17  1  0
 20 19  1  0
 21 18  1  0
  5 22  1  0
  6 23  1  0
  6 24  1  0
  7 25  1  0
  7 26  1  0
  8 27  1  0
  8 28  1  0
  9 29  1  0
  9 30  1  0
 10 31  1  0
 10 32  1  0
 10 33  1  0
 11 34  1  0
 11 35  1  0
 11 36  1  0
 14 37  1  0
 15 38  1  0
 16 39  1  0
 16 40  1  0
 17 41  1  0
 17 42  1  0
 18 43  1  0
 18 44  1  0
 19 45  1  0
 19 46  1  0
 20 47  1  0
 20 48  1  0
 20 49  1  0
 21 50  1  0
 21 51  1  0
 21 52  1  0
M  CHG  2   1   1   3  -1
M  END
> <Uni-Dock RESULT> 
ENERGY=   -4.629  LOWER_BOUND=   11.364  UPPER_BOUND=   12.214
INTER + INTRA:          -4.629
INTER:                  -4.629
INTRA:                   0.000
UNBOUND:                 0.000

$$$$

     RDKit          3D

 52 49  0  0  0  0  0  0  0  0999 V2000
   48.2503    5.1284   19.7888 Na  0  0  0  0  0 15  0  0  0  0  0  0
   49.5690    6.8726   19.5868 C   0  0  0  0  0  0  0  0  0  0  0  0
   50.7751    6.4993   19.6130 O   0  0  0  0  0  0  0  0  0  0  0  0
   49.0980    8.0369   19.7403 O   0  0  0  0  0  0  0  0  0  0  0  0
   48.5148    5.7733   19.2999 C   0  0  0  0  0  0  0  0  0  0  0  0
   49.1328    4.3811   19.0787 C   0  0  0  0  0  0  0  0  0  0  0  0
   47.3671    5.8049   20.3295 C   0  0  0  0  0  0  0  0  0  0  0  0
   47.6365    5.1725   21.7009 C   0  0  0  0  0  0  0  0  0  0  0  0
   48.1553    3.2785   18.6556 C   0  0  0  0  0  0  0  0  0  0  0  0
   47.4706    3.5506   17.3251 C   0  0  0  0  0  0  0  0  0  0  0  0
   48.7114    5.8684   22.5184 C   0  0  0  0  0  0  0  0  0  0  0  0
   48.3090    6.3856   19.2209 C   0  0  0  0  0  0  0  0  0  0  0  0
   47.3368    6.9393   18.7326 O   0  0  0  0  0  0  0  0  0  0  0  0
   48.3279    4.9896   19.8050 C   0  0  0  0  0  0  0  0  0  0  0  0
   49.5040    7.0036   19.2375 O   0  0  0  0  0  0  0  0  0  0  0  0
   48.9317    4.9591   21.2243 C   0  0  0  0  0  0  0  0  0  0  0  0
   49.1147    4.0490   18.8698 C   0  0  0  0  0  0  0  0  0  0  0  0
   47.9933    5.4521   22.3332 C   0  0  0  0  0  0  0  0  0  0  0  0
   48.5623    3.9316   17.4437 C   0  0  0  0  0  0  0  0  0  0  0  0
   47.1520    3.3663   17.3805 C   0  0  0  0  0  0  0  0  0  0  0  0
   47.7112    6.9449   22.3094 C   0  0  0  0  0  0  0  0  0  0  0  0
   48.0818    6.0916   18.3407 H   0  0  0  0  0  0  0  0  0  0  0  0
   49.9130    4.4539   18.3092 H   0  0  0  0  0  0  0  0  0  0  0  0
   49.6485    4.0558   19.9909 H   0  0  0  0  0  0  0  0  0  0  0  0
   46.5029    5.2870   19.8935 H   0  0  0  0  0  0  0  0  0  0  0  0
   47.0296    6.8372   20.4861 H   0  0  0  0  0  0  0  0  0  0  0  0
   46.7008    5.2056   22.2732 H   0  0  0  0  0  0  0  0  0  0  0  0
   47.8886    4.1122   21.5962 H   0  0  0  0  0  0  0  0  0  0  0  0
   48.7163    2.3398   18.5695 H   0  0  0  0  0  0  0  0  0  0  0  0
   47.3978    3.1135   19.4286 H   0  0  0  0  0  0  0  0  0  0  0  0
   46.8726    2.6834   17.0267 H   0  0  0  0  0  0  0  0  0  0  0  0
   48.2050    3.7425   16.5366 H   0  0  0  0  0  0  0  0  0  0  0  0
   46.7968    4.4099   17.3884 H   0  0  0  0  0  0  0  0  0  0  0  0
   49.7043    5.7153   22.0882 H   0  0  0  0  0  0  0  0  0  0  0  0
   48.5198    6.9433   22.5922 H   0  0  0  0  0  0  0  0  0  0  0  0
   48.7312    5.4596   23.5340 H   0  0  0  0  0  0  0  0  0  0  0  0
   47.2893    4.6445   19.8714 H   0  0  0  0  0  0  0  0  0  0  0  0
   49.3273    7.8702   18.8150 H   0  0  0  0  0  0  0  0  0  0  0  0
   49.1882    3.9205   21.4714 H   0  0  0  0  0  0  0  0  0  0  0  0
   49.8719    5.5223   21.2650 H   0  0  0  0  0  0  0  0  0  0  0  0
   49.1430    3.0443   19.3109 H   0  0  0  0  0  0  0  0  0  0  0  0
   50.1574    4.3859   18.8035 H   0  0  0  0  0  0  0  0  0  0  0  0
   48.4568    5.2108   23.2978 H   0  0  0  0  0  0  0  0  0  0  0  0
   47.0470    4.8999   22.2962 H   0  0  0  0  0  0  0  0  0  0  0  0
   49.2262    3.2705   16.8734 H   0  0  0  0  0  0  0  0  0  0  0  0
   48.5892    4.9046   16.9406 H   0  0  0  0  0  0  0  0  0  0  0  0
   46.8606    3.2013   16.3381 H   0  0  0  0  0  0  0  0  0  0  0  0
   47.0883    2.4080   17.9055 H   0  0  0  0  0  0  0  0  0  0  0  0
   46.4237    4.0530   17.8214 H   0  0  0  0  0  0  0  0  0  0  0  0
   47.1862    7.2399   23.2239 H   0  0  0  0  0  0  0  0  0  0  0  0
   47.0711    7.2195   21.4675 H   0  0  0  0  0  0  0  0  0  0  0  0
   48.6385    7.5232   22.2517 H   0  0  0  0  0  0  0  0  0  0  0  0
  3  2  1  0
  4  2  2  0
  5  2  1  0
  6  5  1  0
  7  5  1  0
  8  7  1  0
  9  6  1  0
 10  9  1  0
 11  8  1  0
 13 12  2  0
 14 12  1  0
 15 12  1  0
 16 14  1  0
 17 14  1  0
 18 16  1  0
 19 17  1  0
 20 19  1  0
 21 18  1  0
  5 22  1  0
  6 23  1  0
  6 24  1  0
  7 25  1  0
  7 26  1  0
  8 27  1  0
  8 28  1  0
  9 29  1  0
  9 30  1  0
 10 31  1  0
 10 32  1  0
 10 33  1  0
 11 34  1  0
 11 35  1  0
 11 36  1  0
 14 37  1  0
 15 38  1  0
 16 39  1  0
 16 40  1  0
 17 41  1  0
 17 42  1  0
 18 43  1  0
 18 44  1  0
 19 45  1  0
 19 46  1  0
 20 47  1  0
 20 48  1  0
 20 49  1  0
 21 50  1  0
 21 51  1  0
 21 52  1  0
M  CHG  2   1   1   3  -1
M  END
> <Uni-Dock RESULT> 
ENERGY=   -4.615  LOWER_BOUND=    7.951  UPPER_BOUND=    9.977
INTER + INTRA:          -4.615
INTER:                  -4.615
INTRA:                   0.000
UNBOUND:                 0.000

$$$$

     RDKit          3D

 52 49  0  0  0  0  0  0  0  0999 V2000
   48.3440    4.9046   19.2996 Na  0  0  0  0  0 15  0  0  0  0  0  0
   50.4180    5.5295   19.6600 C   0  0  0  0  0  0  0  0  0  0  0  0
   51.0988    4.5398   20.0498 O   0  0  0  0  0  0  0  0  0  0  0  0
   50.6988    6.7610   19.7341 O   0  0  0  0  0  0  0  0  0  0  0  0
   49.0683    5.2069   18.9697 C   0  0  0  0  0  0  0  0  0  0  0  0
   48.7852    3.6977   18.8634 C   0  0  0  0  0  0  0  0  0  0  0  0
   47.9120    6.0316   19.5707 C   0  0  0  0  0  0  0  0  0  0  0  0
   47.3295    5.5540   20.9070 C   0  0  0  0  0  0  0  0  0  0  0  0
   47.5327    3.3098   18.0692 C   0  0  0  0  0  0  0  0  0  0  0  0
   47.5794    3.7402   16.6113 C   0  0  0  0  0  0  0  0  0  0  0  0
   48.2980    5.6115   22.0760 C   0  0  0  0  0  0  0  0  0  0  0  0
   49.2959    5.8087   18.8716 C   0  0  0  0  0  0  0  0  0  0  0  0
   49.0365    6.7465   18.1347 O   0  0  0  0  0  0  0  0  0  0  0  0
   48.3162    4.7502   19.3301 C   0  0  0  0  0  0  0  0  0  0  0  0
   50.5515    5.6248   19.3187 O   0  0  0  0  0  0  0  0  0  0  0  0
   48.3231    4.5736   20.8627 C   0  0  0  0  0  0  0  0  0  0  0  0
   48.6405    3.4112   18.6370 C   0  0  0  0  0  0  0  0  0  0  0  0
   47.5702    5.6617   21.6389 C   0  0  0  0  0  0  0  0  0  0  0  0
   48.5877    3.4380   17.1044 C   0  0  0  0  0  0  0  0  0  0  0  0
   47.2151    3.7815   16.5471 C   0  0  0  0  0  0  0  0  0  0  0  0
   48.2391    7.0259   21.6303 C   0  0  0  0  0  0  0  0  0  0  0  0
   49.2192    5.5810   17.9469 H   0  0  0  0  0  0  0  0  0  0  0  0
   49.6476    3.2037   18.3959 H   0  0  0  0  0  0  0  0  0  0  0  0
   48.7067    3.2641   19.8682 H   0  0  0  0  0  0  0  0  0  0  0  0
   47.0908    6.0491   18.8425 H   0  0  0  0  0  0  0  0  0  0  0  0
   48.2151    7.0803   19.6817 H   0  0  0  0  0  0  0  0  0  0  0  0
   46.4719    6.1957   21.1456 H   0  0  0  0  0  0  0  0  0  0  0  0
   46.9302    4.5386   20.8153 H   0  0  0  0  0  0  0  0  0  0  0  0
   47.4312    2.2181   18.1039 H   0  0  0  0  0  0  0  0  0  0  0  0
   46.6323    3.7168   18.5409 H   0  0  0  0  0  0  0  0  0  0  0  0
   46.7123    3.3418   16.0746 H   0  0  0  0  0  0  0  0  0  0  0  0
   48.4827    3.3661   16.1194 H   0  0  0  0  0  0  0  0  0  0  0  0
   47.5564    4.8293   16.5130 H   0  0  0  0  0  0  0  0  0  0  0  0
   49.0855    4.8595   21.9817 H   0  0  0  0  0  0  0  0  0  0  0  0
   48.7609    6.5996   22.1593 H   0  0  0  0  0  0  0  0  0  0  0  0
   47.7664    5.4090   23.0116 H   0  0  0  0  0  0  0  0  0  0  0  0
   47.3129    5.0762   19.0314 H   0  0  0  0  0  0  0  0  0  0  0  0
   51.0537    6.3682   18.9240 H   0  0  0  0  0  0  0  0  0  0  0  0
   47.8333    3.6214   21.1057 H   0  0  0  0  0  0  0  0  0  0  0  0
   49.3476    4.4948   21.2460 H   0  0  0  0  0  0  0  0  0  0  0  0
   47.9401    2.6439   18.9914 H   0  0  0  0  0  0  0  0  0  0  0  0
   49.6420    3.0763   18.9367 H   0  0  0  0  0  0  0  0  0  0  0  0
   47.4858    5.3331   22.6822 H   0  0  0  0  0  0  0  0  0  0  0  0
   46.5464    5.7533   21.2580 H   0  0  0  0  0  0  0  0  0  0  0  0
   48.8727    2.4453   16.7352 H   0  0  0  0  0  0  0  0  0  0  0  0
   49.3297    4.1396   16.7072 H   0  0  0  0  0  0  0  0  0  0  0  0
   47.2148    3.6727   15.4577 H   0  0  0  0  0  0  0  0  0  0  0  0
   46.4474    3.1160   16.9540 H   0  0  0  0  0  0  0  0  0  0  0  0
   46.9359    4.8142   16.7751 H   0  0  0  0  0  0  0  0  0  0  0  0
   47.7401    7.6905   22.3434 H   0  0  0  0  0  0  0  0  0  0  0  0
   48.1731    7.4996   20.6479 H   0  0  0  0  0  0  0  0  0  0  0  0
   49.2926    6.9534   21.9176 H   0  0  0  0  0  0  0  0  0  0  0  0
  3  2  1  0
  4  2  2  0
  5  2  1  0
  6  5  1  0
  7  5  1  0
  8  7  1  0
  9  6  1  0
 10  9  1  0
 11  8  1  0
 13 12  2  0
 14 12  1  0
 15 12  1  0
 16 14  1  0
 17 14  1  0
 18 16  1  0
 19 17  1  0
 20 19  1  0
 21 18  1  0
  5 22  1  0
  6 23  1  0
  6 24  1  0
  7 25  1  0
  7 26  1  0
  8 27  1  0
  8 28  1  0
  9 29  1  0
  9 30  1  0
 10 31  1  0
 10 32  1  0
 10 33  1  0
 11 34  1  0
 11 35  1  0
 11 36  1  0
 14 37  1  0
 15 38  1  0
 16 39  1  0
 16 40  1  0
 17 41  1  0
 17 42  1  0
 18 43  1  0
 18 44  1  0
 19 45  1  0
 19 46  1  0
 20 47  1  0
 20 48  1  0
 20 49  1  0
 21 50  1  0
 21 51  1  0
 21 52  1  0
M  CHG  2   1   1   3  -1
M  END
> <Uni-Dock RESULT> 
ENERGY=   -4.513  LOWER_BOUND=    7.754  UPPER_BOUND=    9.715
INTER + INTRA:          -4.513
INTER:                  -4.513
INTRA:                   0.000
UNBOUND:                 0.000

$$$$

     RDKit          3D

 52 49  0  0  0  0  0  0  0  0999 V2000
   45.0389    6.1357   11.7028 Na  0  0  0  0  0 15  0  0  0  0  0  0
   45.3280    4.5260   13.1682 C   0  0  0  0  0  0  0  0  0  0  0  0
   46.5580    4.2578   13.2683 O   0  0  0  0  0  0  0  0  0  0  0  0
   44.3356    3.8426   13.5541 O   0  0  0  0  0  0  0  0  0  0  0  0
   44.9714    5.8849   12.5136 C   0  0  0  0  0  0  0  0  0  0  0  0
   46.2075    6.7020   12.0969 C   0  0  0  0  0  0  0  0  0  0  0  0
   43.9126    5.7202   11.4045 C   0  0  0  0  0  0  0  0  0  0  0  0
   44.3962    5.2044   10.0431 C   0  0  0  0  0  0  0  0  0  0  0  0
   45.9253    8.1135   11.5694 C   0  0  0  0  0  0  0  0  0  0  0  0
   45.2580    9.0222   12.5903 C   0  0  0  0  0  0  0  0  0  0  0  0
   44.9461    3.7884   10.0620 C   0  0  0  0  0  0  0  0  0  0  0  0
   44.4932    5.6046   12.8547 C   0  0  0  0  0  0  0  0  0  0  0  0
   43.3982    5.9329   13.2828 O   0  0  0  0  0  0  0  0  0  0  0  0
   45.1742    6.1873   11.6352 C   0  0  0  0  0  0  0  0  0  0  0  0
   45.2229    4.6763   13.4996 O   0  0  0  0  0  0  0  0  0  0  0  0
   45.6475    5.0953   10.6537 C   0  0  0  0  0  0  0  0  0  0  0  0
   46.3659    7.0609   12.0770 C   0  0  0  0  0  0  0  0  0  0  0  0
   44.5380    4.4828    9.7893 C   0  0  0  0  0  0  0  0  0  0  0  0
   46.0108    8.2355   12.9972 C   0  0  0  0  0  0  0  0  0  0  0  0
   45.0704    9.2467   12.3601 C   0  0  0  0  0  0  0  0  0  0  0  0
   43.5550    3.6054   10.5457 C   0  0  0  0  0  0  0  0  0  0  0  0
   44.4824    6.4320   13.3325 H   0  0  0  0  0  0  0  0  0  0  0  0
   46.8837    6.7924   12.9575 H   0  0  0  0  0  0  0  0  0  0  0  0
   46.7737    6.1536   11.3339 H   0  0  0  0  0  0  0  0  0  0  0  0
   43.4398    6.6965   11.2362 H   0  0  0  0  0  0  0  0  0  0  0  0
   43.1012    5.0683   11.7519 H   0  0  0  0  0  0  0  0  0  0  0  0
   43.5417    5.2270    9.3550 H   0  0  0  0  0  0  0  0  0  0  0  0
   45.1451    5.8796    9.6163 H   0  0  0  0  0  0  0  0  0  0  0  0
   46.8809    8.5659   11.2771 H   0  0  0  0  0  0  0  0  0  0  0  0
   45.3142    8.0740   10.6619 H   0  0  0  0  0  0  0  0  0  0  0  0
   45.1827   10.0400   12.1940 H   0  0  0  0  0  0  0  0  0  0  0  0
   45.8364    9.0626   13.5185 H   0  0  0  0  0  0  0  0  0  0  0  0
   44.2449    8.6845   12.8270 H   0  0  0  0  0  0  0  0  0  0  0  0
   45.9032    3.7368   10.5873 H   0  0  0  0  0  0  0  0  0  0  0  0
   44.2441    3.0966   10.5377 H   0  0  0  0  0  0  0  0  0  0  0  0
   45.1189    3.4413    9.0380 H   0  0  0  0  0  0  0  0  0  0  0  0
   44.4412    6.8154   11.1152 H   0  0  0  0  0  0  0  0  0  0  0  0
   44.6598    4.4199   14.2598 H   0  0  0  0  0  0  0  0  0  0  0  0
   46.3731    5.5409    9.9605 H   0  0  0  0  0  0  0  0  0  0  0  0
   46.1822    4.2960   11.1810 H   0  0  0  0  0  0  0  0  0  0  0  0
   46.8678    7.4615   11.1868 H   0  0  0  0  0  0  0  0  0  0  0  0
   47.1066    6.4366   12.5936 H   0  0  0  0  0  0  0  0  0  0  0  0
   45.0151    3.8675    9.0163 H   0  0  0  0  0  0  0  0  0  0  0  0
   43.9925    5.2749    9.2633 H   0  0  0  0  0  0  0  0  0  0  0  0
   46.9405    8.7503   13.2684 H   0  0  0  0  0  0  0  0  0  0  0  0
   45.5753    7.8708   13.9341 H   0  0  0  0  0  0  0  0  0  0  0  0
   44.9475   10.1118   13.0198 H   0  0  0  0  0  0  0  0  0  0  0  0
   45.4656    9.6036   11.4039 H   0  0  0  0  0  0  0  0  0  0  0  0
   44.0781    8.8199   12.1883 H   0  0  0  0  0  0  0  0  0  0  0  0
   42.9111    3.0716    9.8389 H   0  0  0  0  0  0  0  0  0  0  0  0
   42.9025    4.1976   11.1918 H   0  0  0  0  0  0  0  0  0  0  0  0
   44.0754    2.8609   11.1560 H   0  0  0  0  0  0  0  0  0  0  0  0
  3  2  1  0
  4  2  2  0
  5  2  1  0
  6  5  1  0
  7  5  1  0
  8  7  1  0
  9  6  1  0
 10  9  1  0
 11  8  1  0
 13 12  2  0
 14 12  1  0
 15 12  1  0
 16 14  1  0
 17 14  1  0
 18 16  1  0
 19 17  1  0
 20 19  1  0
 21 18  1  0
  5 22  1  0
  6 23  1  0
  6 24  1  0
  7 25  1  0
  7 26  1  0
  8 27  1  0
  8 28  1  0
  9 29  1  0
  9 30  1  0
 10 31  1  0
 10 32  1  0
 10 33  1  0
 11 34  1  0
 11 35  1  0
 11 36  1  0
 14 37  1  0
 15 38  1  0
 16 39  1  0
 16 40  1  0
 17 41  1  0
 17 42  1  0
 18 43  1  0
 18 44  1  0
 19 45  1  0
 19 46  1  0
 20 47  1  0
 20 48  1  0
 20 49  1  0
 21 50  1  0
 21 51  1  0
 21 52  1  0
M  CHG  2   1   1   3  -1
M  END
> <Uni-Dock RESULT> 
ENERGY=   -4.507  LOWER_BOUND=    1.441  UPPER_BOUND=    4.136
INTER + INTRA:          -4.507
INTER:                  -4.507
INTRA:                   0.000
UNBOUND:                 0.000

$$$$

     RDKit          3D

 52 49  0  0  0  0  0  0  0  0999 V2000
   47.7249   10.4146   20.7608 Na  0  0  0  0  0 15  0  0  0  0  0  0
   48.0854    8.8309   19.2831 C   0  0  0  0  0  0  0  0  0  0  0  0
   46.9921    8.4872   18.7526 O   0  0  0  0  0  0  0  0  0  0  0  0
   49.1953    8.2234   19.2720 O   0  0  0  0  0  0  0  0  0  0  0  0
   48.0919   10.1912   20.0258 C   0  0  0  0  0  0  0  0  0  0  0  0
   46.7346   10.9156   19.9797 C   0  0  0  0  0  0  0  0  0  0  0  0
   48.6990   10.0642   21.4377 C   0  0  0  0  0  0  0  0  0  0  0  0
   47.8027    9.4810   22.5376 C   0  0  0  0  0  0  0  0  0  0  0  0
   46.7129   12.3271   20.5774 C   0  0  0  0  0  0  0  0  0  0  0  0
   47.6329   13.3046   19.8622 C   0  0  0  0  0  0  0  0  0  0  0  0
   47.3952    8.0337   22.3206 C   0  0  0  0  0  0  0  0  0  0  0  0
   48.6781    9.9517   19.8756 C   0  0  0  0  0  0  0  0  0  0  0  0
   49.8280   10.3612   19.8645 O   0  0  0  0  0  0  0  0  0  0  0  0
   47.5712   10.4557   20.7761 C   0  0  0  0  0  0  0  0  0  0  0  0
   48.2901    8.9966   19.0110 O   0  0  0  0  0  0  0  0  0  0  0  0
   46.8589    9.3088   21.5228 C   0  0  0  0  0  0  0  0  0  0  0  0
   46.5547   11.2628   19.9432 C   0  0  0  0  0  0  0  0  0  0  0  0
   47.6310    8.7451   22.7225 C   0  0  0  0  0  0  0  0  0  0  0  0
   47.1293   12.4828   19.2124 C   0  0  0  0  0  0  0  0  0  0  0  0
   47.7108   13.5342   20.1446 C   0  0  0  0  0  0  0  0  0  0  0  0
   48.8766    7.9537   22.3610 C   0  0  0  0  0  0  0  0  0  0  0  0
   48.7993   10.7909   19.4352 H   0  0  0  0  0  0  0  0  0  0  0  0
   46.4016   10.9861   18.9355 H   0  0  0  0  0  0  0  0  0  0  0  0
   45.9749   10.3111   20.4907 H   0  0  0  0  0  0  0  0  0  0  0  0
   49.0126   11.0638   21.7657 H   0  0  0  0  0  0  0  0  0  0  0  0
   49.6242    9.4755   21.3985 H   0  0  0  0  0  0  0  0  0  0  0  0
   48.3550    9.5393   23.4840 H   0  0  0  0  0  0  0  0  0  0  0  0
   46.9062   10.0948   22.6733 H   0  0  0  0  0  0  0  0  0  0  0  0
   45.6866   12.7090   20.5133 H   0  0  0  0  0  0  0  0  0  0  0  0
   46.9649   12.3018   21.6425 H   0  0  0  0  0  0  0  0  0  0  0  0
   47.4920   14.3138   20.2626 H   0  0  0  0  0  0  0  0  0  0  0  0
   47.4186   13.3334   18.7893 H   0  0  0  0  0  0  0  0  0  0  0  0
   48.6851   13.0392   19.9990 H   0  0  0  0  0  0  0  0  0  0  0  0
   46.6917    7.9354   21.4900 H   0  0  0  0  0  0  0  0  0  0  0  0
   48.2664    7.4018   22.1226 H   0  0  0  0  0  0  0  0  0  0  0  0
   46.8963    7.6481   23.2158 H   0  0  0  0  0  0  0  0  0  0  0  0
   48.0273   11.1148   21.5242 H   0  0  0  0  0  0  0  0  0  0  0  0
   49.1019    8.7980   18.4990 H   0  0  0  0  0  0  0  0  0  0  0  0
   45.9059    9.6876   21.9151 H   0  0  0  0  0  0  0  0  0  0  0  0
   46.6022    8.4917   20.8377 H   0  0  0  0  0  0  0  0  0  0  0  0
   45.7439   11.6057   20.5989 H   0  0  0  0  0  0  0  0  0  0  0  0
   46.0899   10.6068   19.1957 H   0  0  0  0  0  0  0  0  0  0  0  0
   46.9557    8.0794   23.2742 H   0  0  0  0  0  0  0  0  0  0  0  0
   47.8988    9.5557   23.4101 H   0  0  0  0  0  0  0  0  0  0  0  0
   46.3220   12.9442   18.6308 H   0  0  0  0  0  0  0  0  0  0  0  0
   47.8921   12.1728   18.4896 H   0  0  0  0  0  0  0  0  0  0  0  0
   47.9983   14.4233   19.5740 H   0  0  0  0  0  0  0  0  0  0  0  0
   46.9793   13.8385   20.8997 H   0  0  0  0  0  0  0  0  0  0  0  0
   48.6055   13.1673   20.6557 H   0  0  0  0  0  0  0  0  0  0  0  0
   49.2647    7.4430   23.2485 H   0  0  0  0  0  0  0  0  0  0  0  0
   49.6723    8.6042   21.9899 H   0  0  0  0  0  0  0  0  0  0  0  0
   48.6588    7.1946   21.6035 H   0  0  0  0  0  0  0  0  0  0  0  0
  3  2  1  0
  4  2  2  0
  5  2  1  0
  6  5  1  0
  7  5  1  0
  8  7  1  0
  9  6  1  0
 10  9  1  0
 11  8  1  0
 13 12  2  0
 14 12  1  0
 15 12  1  0
 16 14  1  0
 17 14  1  0
 18 16  1  0
 19 17  1  0
 20 19  1  0
 21 18  1  0
  5 22  1  0
  6 23  1  0
  6 24  1  0
  7 25  1  0
  7 26  1  0
  8 27  1  0
  8 28  1  0
  9 29  1  0
  9 30  1  0
 10 31  1  0
 10 32  1  0
 10 33  1  0
 11 34  1  0
 11 35  1  0
 11 36  1  0
 14 37  1  0
 15 38  1  0
 16 39  1  0
 16 40  1  0
 17 41  1  0
 17 42  1  0
 18 43  1  0
 18 44  1  0
 19 45  1  0
 19 46  1  0
 20 47  1  0
 20 48  1  0
 20 49  1  0
 21 50  1  0
 21 51  1  0
 21 52  1  0
M  CHG  2   1   1   3  -1
M  END
> <Uni-Dock RESULT> 
ENERGY=   -4.266  LOWER_BOUND=   10.150  UPPER_BOUND=   12.048
INTER + INTRA:          -4.266
INTER:                  -4.266
INTRA:                   0.000
UNBOUND:                 0.000

$$$$
