
     RDKit          3D

 52 49  0  0  0  0  0  0  0  0999 V2000
   44.8534    5.2507   11.1505 Na  0  0  0  0  0 15  0  0  0  0  0  0
   42.9973    6.3666   11.4761 C   0  0  0  0  0  0  0  0  0  0  0  0
   42.7090    7.3553   10.7420 O   0  0  0  0  0  0  0  0  0  0  0  0
   42.3523    5.8701   12.4420 O   0  0  0  0  0  0  0  0  0  0  0  0
   44.3305    5.6759   11.1234 C   0  0  0  0  0  0  0  0  0  0  0  0
   43.9283    4.3781   10.3986 C   0  0  0  0  0  0  0  0  0  0  0  0
   45.1917    5.4158   12.3677 C   0  0  0  0  0  0  0  0  0  0  0  0
   45.5723    6.6743   13.1582 C   0  0  0  0  0  0  0  0  0  0  0  0
   45.1097    3.6790    9.7206 C   0  0  0  0  0  0  0  0  0  0  0  0
   44.6540    2.4616    8.9301 C   0  0  0  0  0  0  0  0  0  0  0  0
   46.4096    7.6629   12.3619 C   0  0  0  0  0  0  0  0  0  0  0  0
   45.1921    3.5510   12.6644 C   0  0  0  0  0  0  0  0  0  0  0  0
   46.1017    2.7609   12.8657 O   0  0  0  0  0  0  0  0  0  0  0  0
   45.3336    4.8923   11.9688 C   0  0  0  0  0  0  0  0  0  0  0  0
   43.9363    3.2314   13.0220 O   0  0  0  0  0  0  0  0  0  0  0  0
   44.2058    5.8752   12.3377 C   0  0  0  0  0  0  0  0  0  0  0  0
   45.5367    4.6687   10.4597 C   0  0  0  0  0  0  0  0  0  0  0  0
   44.3384    7.2823   11.7459 C   0  0  0  0  0  0  0  0  0  0  0  0
   44.2904    4.1857    9.7114 C   0  0  0  0  0  0  0  0  0  0  0  0
   44.5923    3.9358    8.2410 C   0  0  0  0  0  0  0  0  0  0  0  0
   45.5947    8.0153   12.1894 C   0  0  0  0  0  0  0  0  0  0  0  0
   44.8835    6.3109   10.4204 H   0  0  0  0  0  0  0  0  0  0  0  0
   43.1722    4.6069    9.6352 H   0  0  0  0  0  0  0  0  0  0  0  0
   43.4525    3.6833   11.1032 H   0  0  0  0  0  0  0  0  0  0  0  0
   44.6698    4.7300   13.0472 H   0  0  0  0  0  0  0  0  0  0  0  0
   46.1178    4.9083   12.0737 H   0  0  0  0  0  0  0  0  0  0  0  0
   44.6749    7.1774   13.5348 H   0  0  0  0  0  0  0  0  0  0  0  0
   46.1467    6.3642   14.0396 H   0  0  0  0  0  0  0  0  0  0  0  0
   45.6171    4.3762    9.0439 H   0  0  0  0  0  0  0  0  0  0  0  0
   45.8425    3.3557   10.4671 H   0  0  0  0  0  0  0  0  0  0  0  0
   45.5122    1.9746    8.4565 H   0  0  0  0  0  0  0  0  0  0  0  0
   43.9483    2.7459    8.1430 H   0  0  0  0  0  0  0  0  0  0  0  0
   44.1658    1.7308    9.5827 H   0  0  0  0  0  0  0  0  0  0  0  0
   46.7408    8.4810   13.0097 H   0  0  0  0  0  0  0  0  0  0  0  0
   45.8371    8.1037   11.5406 H   0  0  0  0  0  0  0  0  0  0  0  0
   47.2990    7.1797   11.9455 H   0  0  0  0  0  0  0  0  0  0  0  0
   46.2663    5.3076   12.3737 H   0  0  0  0  0  0  0  0  0  0  0  0
   44.0243    2.3406   13.4210 H   0  0  0  0  0  0  0  0  0  0  0  0
   43.2342    5.4684   12.0312 H   0  0  0  0  0  0  0  0  0  0  0  0
   44.1556    5.9599   13.4318 H   0  0  0  0  0  0  0  0  0  0  0  0
   46.3404    3.9347   10.3138 H   0  0  0  0  0  0  0  0  0  0  0  0
   45.8925    5.5995   10.0011 H   0  0  0  0  0  0  0  0  0  0  0  0
   43.4666    7.8690   12.0603 H   0  0  0  0  0  0  0  0  0  0  0  0
   44.3043    7.2431   10.6519 H   0  0  0  0  0  0  0  0  0  0  0  0
   43.4903    4.9298    9.7806 H   0  0  0  0  0  0  0  0  0  0  0  0
   43.9148    3.2585   10.1576 H   0  0  0  0  0  0  0  0  0  0  0  0
   43.6910    3.5947    7.7221 H   0  0  0  0  0  0  0  0  0  0  0  0
   44.9407    4.8507    7.7512 H   0  0  0  0  0  0  0  0  0  0  0  0
   45.3629    3.1673    8.1234 H   0  0  0  0  0  0  0  0  0  0  0  0
   45.5754    9.0473   11.8245 H   0  0  0  0  0  0  0  0  0  0  0  0
   45.6689    8.0437   13.2810 H   0  0  0  0  0  0  0  0  0  0  0  0
   46.4972    7.5418   11.7922 H   0  0  0  0  0  0  0  0  0  0  0  0
  3  2  1  0
  4  2  2  0
  5  2  1  0
  6  5  1  0
  7  5  1  0
  8  7  1  0
  9  6  1  0
 10  9  1  0
 11  8  1  0
 13 12  2  0
 14 12  1  0
 15 12  1  0
 16 14  1  0
 17 14  1  0
 18 16  1  0
 19 17  1  0
 20 19  1  0
 21 18  1  0
  5 22  1  0
  6 23  1  0
  6 24  1  0
  7 25  1  0
  7 26  1  0
  8 27  1  0
  8 28  1  0
  9 29  1  0
  9 30  1  0
 10 31  1  0
 10 32  1  0
 10 33  1  0
 11 34  1  0
 11 35  1  0
 11 36  1  0
 14 37  1  0
 15 38  1  0
 16 39  1  0
 16 40  1  0
 17 41  1  0
 17 42  1  0
 18 43  1  0
 18 44  1  0
 19 45  1  0
 19 46  1  0
 20 47  1  0
 20 48  1  0
 20 49  1  0
 21 50  1  0
 21 51  1  0
 21 52  1  0
M  CHG  2   1   1   3  -1
M  END
> <Uni-Dock RESULT> 
ENERGY=   -5.249  LOWER_BOUND=    0.000  UPPER_BOUND=    0.000
INTER + INTRA:          -5.249
INTER:                  -5.249
INTRA:                   0.000
UNBOUND:                 0.000

$$$$

     RDKit          3D

 52 49  0  0  0  0  0  0  0  0999 V2000
   45.0924    5.2968   11.3974 Na  0  0  0  0  0 15  0  0  0  0  0  0
   44.8345    3.4295   12.5123 C   0  0  0  0  0  0  0  0  0  0  0  0
   45.7767    2.5881   12.5763 O   0  0  0  0  0  0  0  0  0  0  0  0
   43.6780    3.3780   13.0176 O   0  0  0  0  0  0  0  0  0  0  0  0
   45.1648    4.6983   11.6999 C   0  0  0  0  0  0  0  0  0  0  0  0
   45.4001    5.7967   12.7532 C   0  0  0  0  0  0  0  0  0  0  0  0
   44.0463    5.0569   10.7111 C   0  0  0  0  0  0  0  0  0  0  0  0
   43.7341    3.9698    9.6748 C   0  0  0  0  0  0  0  0  0  0  0  0
   46.0112    7.0711   12.1644 C   0  0  0  0  0  0  0  0  0  0  0  0
   46.3241    8.0890   13.2510 C   0  0  0  0  0  0  0  0  0  0  0  0
   44.9066    3.6438    8.7629 C   0  0  0  0  0  0  0  0  0  0  0  0
   43.2115    6.6220   11.3588 C   0  0  0  0  0  0  0  0  0  0  0  0
   42.9254    7.6758   10.8113 O   0  0  0  0  0  0  0  0  0  0  0  0
   44.2880    5.6575   10.8961 C   0  0  0  0  0  0  0  0  0  0  0  0
   42.5877    6.2671   12.4954 O   0  0  0  0  0  0  0  0  0  0  0  0
   44.0608    4.2224   11.4092 C   0  0  0  0  0  0  0  0  0  0  0  0
   45.6745    6.2493   11.2056 C   0  0  0  0  0  0  0  0  0  0  0  0
   45.0576    3.1756   10.9012 C   0  0  0  0  0  0  0  0  0  0  0  0
   46.0456    6.2656   12.6917 C   0  0  0  0  0  0  0  0  0  0  0  0
   47.4030    6.9166   12.9140 C   0  0  0  0  0  0  0  0  0  0  0  0
   45.0497    3.0078    9.3899 C   0  0  0  0  0  0  0  0  0  0  0  0
   46.1007    4.5346   11.1518 H   0  0  0  0  0  0  0  0  0  0  0  0
   46.0721    5.4147   13.5337 H   0  0  0  0  0  0  0  0  0  0  0  0
   44.4566    6.0468   13.2561 H   0  0  0  0  0  0  0  0  0  0  0  0
   43.1220    5.2836   11.2578 H   0  0  0  0  0  0  0  0  0  0  0  0
   44.3136    5.9724   10.1707 H   0  0  0  0  0  0  0  0  0  0  0  0
   43.3919    3.0541   10.1696 H   0  0  0  0  0  0  0  0  0  0  0  0
   42.8988    4.3175    9.0547 H   0  0  0  0  0  0  0  0  0  0  0  0
   46.9339    6.8275   11.6253 H   0  0  0  0  0  0  0  0  0  0  0  0
   45.3233    7.5285   11.4459 H   0  0  0  0  0  0  0  0  0  0  0  0
   46.7564    8.9927   12.8102 H   0  0  0  0  0  0  0  0  0  0  0  0
   47.0428    7.6859   13.9717 H   0  0  0  0  0  0  0  0  0  0  0  0
   45.4170    8.3754   13.7928 H   0  0  0  0  0  0  0  0  0  0  0  0
   44.5903    2.9472    7.9797 H   0  0  0  0  0  0  0  0  0  0  0  0
   45.7244    3.1707    9.3142 H   0  0  0  0  0  0  0  0  0  0  0  0
   45.2909    4.5465    8.2779 H   0  0  0  0  0  0  0  0  0  0  0  0
   44.1724    5.6299    9.8042 H   0  0  0  0  0  0  0  0  0  0  0  0
   41.9598    7.0017   12.6590 H   0  0  0  0  0  0  0  0  0  0  0  0
   44.0802    4.2053   12.5060 H   0  0  0  0  0  0  0  0  0  0  0  0
   43.0473    3.9042   11.1295 H   0  0  0  0  0  0  0  0  0  0  0  0
   45.7162    7.2774   10.8219 H   0  0  0  0  0  0  0  0  0  0  0  0
   46.4381    5.6902   10.6510 H   0  0  0  0  0  0  0  0  0  0  0  0
   44.8029    2.2112   11.3575 H   0  0  0  0  0  0  0  0  0  0  0  0
   46.0717    3.4166   11.2375 H   0  0  0  0  0  0  0  0  0  0  0  0
   46.0798    5.2458   13.0886 H   0  0  0  0  0  0  0  0  0  0  0  0
   45.2917    6.8153   13.2657 H   0  0  0  0  0  0  0  0  0  0  0  0
   47.6529    6.9167   13.9797 H   0  0  0  0  0  0  0  0  0  0  0  0
   48.1901    6.3743   12.3805 H   0  0  0  0  0  0  0  0  0  0  0  0
   47.4026    7.9543   12.5655 H   0  0  0  0  0  0  0  0  0  0  0  0
   45.6979    2.1739    9.1017 H   0  0  0  0  0  0  0  0  0  0  0  0
   44.0407    2.7946    9.0231 H   0  0  0  0  0  0  0  0  0  0  0  0
   45.4208    3.9040    8.8845 H   0  0  0  0  0  0  0  0  0  0  0  0
  3  2  1  0
  4  2  2  0
  5  2  1  0
  6  5  1  0
  7  5  1  0
  8  7  1  0
  9  6  1  0
 10  9  1  0
 11  8  1  0
 13 12  2  0
 14 12  1  0
 15 12  1  0
 16 14  1  0
 17 14  1  0
 18 16  1  0
 19 17  1  0
 20 19  1  0
 21 18  1  0
  5 22  1  0
  6 23  1  0
  6 24  1  0
  7 25  1  0
  7 26  1  0
  8 27  1  0
  8 28  1  0
  9 29  1  0
  9 30  1  0
 10 31  1  0
 10 32  1  0
 10 33  1  0
 11 34  1  0
 11 35  1  0
 11 36  1  0
 14 37  1  0
 15 38  1  0
 16 39  1  0
 16 40  1  0
 17 41  1  0
 17 42  1  0
 18 43  1  0
 18 44  1  0
 19 45  1  0
 19 46  1  0
 20 47  1  0
 20 48  1  0
 20 49  1  0
 21 50  1  0
 21 51  1  0
 21 52  1  0
M  CHG  2   1   1   3  -1
M  END
> <Uni-Dock RESULT> 
ENERGY=   -5.012  LOWER_BOUND=    0.769  UPPER_BOUND=    4.249
INTER + INTRA:          -5.012
INTER:                  -5.012
INTRA:                   0.000
UNBOUND:                 0.000

$$$$

     RDKit          3D

 52 49  0  0  0  0  0  0  0  0999 V2000
   45.3181    4.4905   11.2475 Na  0  0  0  0  0 15  0  0  0  0  0  0
   45.2631    6.6438   11.6430 C   0  0  0  0  0  0  0  0  0  0  0  0
   46.2980    7.3511   11.4743 O   0  0  0  0  0  0  0  0  0  0  0  0
   44.1115    6.9878   12.0316 O   0  0  0  0  0  0  0  0  0  0  0  0
   45.4513    5.1480   11.3176 C   0  0  0  0  0  0  0  0  0  0  0  0
   44.7553    4.9444    9.9591 C   0  0  0  0  0  0  0  0  0  0  0  0
   44.8785    4.2425   12.4172 C   0  0  0  0  0  0  0  0  0  0  0  0
   45.5004    4.4471   13.8046 C   0  0  0  0  0  0  0  0  0  0  0  0
   45.0644    3.5856    9.3247 C   0  0  0  0  0  0  0  0  0  0  0  0
   44.4446    3.4665    7.9403 C   0  0  0  0  0  0  0  0  0  0  0  0
   46.9903    4.1463   13.8539 C   0  0  0  0  0  0  0  0  0  0  0  0
   43.3383    3.4115   11.7078 C   0  0  0  0  0  0  0  0  0  0  0  0
   42.9824    2.2432   11.6873 O   0  0  0  0  0  0  0  0  0  0  0  0
   44.7714    3.8892   11.8542 C   0  0  0  0  0  0  0  0  0  0  0  0
   42.4326    4.3904   11.5389 O   0  0  0  0  0  0  0  0  0  0  0  0
   44.8658    5.3301   12.3917 C   0  0  0  0  0  0  0  0  0  0  0  0
   45.5348    3.6304   10.5431 C   0  0  0  0  0  0  0  0  0  0  0  0
   46.2852    5.8434   12.6551 C   0  0  0  0  0  0  0  0  0  0  0  0
   45.1368    4.5446    9.3803 C   0  0  0  0  0  0  0  0  0  0  0  0
   45.8960    4.1851    8.1114 C   0  0  0  0  0  0  0  0  0  0  0  0
   47.0430    5.0354   13.6969 C   0  0  0  0  0  0  0  0  0  0  0  0
   46.5221    4.9440   11.1948 H   0  0  0  0  0  0  0  0  0  0  0  0
   45.0727    5.7348    9.2654 H   0  0  0  0  0  0  0  0  0  0  0  0
   43.6684    5.0526   10.0711 H   0  0  0  0  0  0  0  0  0  0  0  0
   43.7952    4.3964   12.5021 H   0  0  0  0  0  0  0  0  0  0  0  0
   45.0165    3.1918   12.1366 H   0  0  0  0  0  0  0  0  0  0  0  0
   45.3233    5.4688   14.1581 H   0  0  0  0  0  0  0  0  0  0  0  0
   44.9887    3.7818   14.5107 H   0  0  0  0  0  0  0  0  0  0  0  0
   46.1490    3.4497    9.2445 H   0  0  0  0  0  0  0  0  0  0  0  0
   44.6782    2.7745    9.9505 H   0  0  0  0  0  0  0  0  0  0  0  0
   44.6738    2.4885    7.5057 H   0  0  0  0  0  0  0  0  0  0  0  0
   44.8351    4.2366    7.2675 H   0  0  0  0  0  0  0  0  0  0  0  0
   43.3559    3.5707    7.9879 H   0  0  0  0  0  0  0  0  0  0  0  0
   47.3502    4.2022   14.8863 H   0  0  0  0  0  0  0  0  0  0  0  0
   47.5650    4.8669   13.2648 H   0  0  0  0  0  0  0  0  0  0  0  0
   47.2015    3.1411   13.4759 H   0  0  0  0  0  0  0  0  0  0  0  0
   45.1964    3.2311   12.6240 H   0  0  0  0  0  0  0  0  0  0  0  0
   41.5843    3.9109   11.4333 H   0  0  0  0  0  0  0  0  0  0  0  0
   44.3768    6.0254   11.6981 H   0  0  0  0  0  0  0  0  0  0  0  0
   44.2914    5.3965   13.3257 H   0  0  0  0  0  0  0  0  0  0  0  0
   45.3768    2.5869   10.2395 H   0  0  0  0  0  0  0  0  0  0  0  0
   46.6117    3.7305   10.7262 H   0  0  0  0  0  0  0  0  0  0  0  0
   46.2142    6.8801   13.0062 H   0  0  0  0  0  0  0  0  0  0  0  0
   46.8614    5.8727   11.7243 H   0  0  0  0  0  0  0  0  0  0  0  0
   45.3470    5.5905    9.6267 H   0  0  0  0  0  0  0  0  0  0  0  0
   44.0622    4.4640    9.1841 H   0  0  0  0  0  0  0  0  0  0  0  0
   45.6017    4.8496    7.2930 H   0  0  0  0  0  0  0  0  0  0  0  0
   46.9760    4.2853    8.2589 H   0  0  0  0  0  0  0  0  0  0  0  0
   45.6841    3.1556    7.8055 H   0  0  0  0  0  0  0  0  0  0  0  0
   48.0016    5.5153   13.9193 H   0  0  0  0  0  0  0  0  0  0  0  0
   46.4751    4.9654   14.6299 H   0  0  0  0  0  0  0  0  0  0  0  0
   47.2555    4.0226   13.3428 H   0  0  0  0  0  0  0  0  0  0  0  0
  3  2  1  0
  4  2  2  0
  5  2  1  0
  6  5  1  0
  7  5  1  0
  8  7  1  0
  9  6  1  0
 10  9  1  0
 11  8  1  0
 13 12  2  0
 14 12  1  0
 15 12  1  0
 16 14  1  0
 17 14  1  0
 18 16  1  0
 19 17  1  0
 20 19  1  0
 21 18  1  0
  5 22  1  0
  6 23  1  0
  6 24  1  0
  7 25  1  0
  7 26  1  0
  8 27  1  0
  8 28  1  0
  9 29  1  0
  9 30  1  0
 10 31  1  0
 10 32  1  0
 10 33  1  0
 11 34  1  0
 11 35  1  0
 11 36  1  0
 14 37  1  0
 15 38  1  0
 16 39  1  0
 16 40  1  0
 17 41  1  0
 17 42  1  0
 18 43  1  0
 18 44  1  0
 19 45  1  0
 19 46  1  0
 20 47  1  0
 20 48  1  0
 20 49  1  0
 21 50  1  0
 21 51  1  0
 21 52  1  0
M  CHG  2   1   1   3  -1
M  END
> <Uni-Dock RESULT> 
ENERGY=   -5.003  LOWER_BOUND=    1.540  UPPER_BOUND=    2.162
INTER + INTRA:          -5.003
INTER:                  -5.003
INTRA:                   0.000
UNBOUND:                 0.000

$$$$

     RDKit          3D

 52 49  0  0  0  0  0  0  0  0999 V2000
   48.9220    4.7418   18.2934 Na  0  0  0  0  0 15  0  0  0  0  0  0
   49.2692    6.6298   17.2393 C   0  0  0  0  0  0  0  0  0  0  0  0
   50.1567    7.4343   17.6450 O   0  0  0  0  0  0  0  0  0  0  0  0
   48.4842    6.7318   16.2550 O   0  0  0  0  0  0  0  0  0  0  0  0
   49.1447    5.3403   18.0763 C   0  0  0  0  0  0  0  0  0  0  0  0
   49.8118    4.2450   17.2237 C   0  0  0  0  0  0  0  0  0  0  0  0
   47.6840    5.0149   18.4197 C   0  0  0  0  0  0  0  0  0  0  0  0
   46.9566    6.1021   19.2211 C   0  0  0  0  0  0  0  0  0  0  0  0
   50.0397    2.9414   17.9937 C   0  0  0  0  0  0  0  0  0  0  0  0
   50.7933    1.9239   17.1501 C   0  0  0  0  0  0  0  0  0  0  0  0
   47.5773    6.3721   20.5829 C   0  0  0  0  0  0  0  0  0  0  0  0
   47.2022    3.4908   17.4144 C   0  0  0  0  0  0  0  0  0  0  0  0
   46.6627    2.4430   17.7360 O   0  0  0  0  0  0  0  0  0  0  0  0
   47.9663    4.4074   18.3520 C   0  0  0  0  0  0  0  0  0  0  0  0
   47.1915    3.8821   16.1285 O   0  0  0  0  0  0  0  0  0  0  0  0
   48.0472    5.8557   17.8323 C   0  0  0  0  0  0  0  0  0  0  0  0
   49.3190    3.7652   18.7077 C   0  0  0  0  0  0  0  0  0  0  0  0
   48.7223    6.8572   18.7751 C   0  0  0  0  0  0  0  0  0  0  0  0
   50.3399    3.7506   17.5658 C   0  0  0  0  0  0  0  0  0  0  0  0
   51.6243    3.0496   17.9834 C   0  0  0  0  0  0  0  0  0  0  0  0
   48.0150    7.0088   20.1128 C   0  0  0  0  0  0  0  0  0  0  0  0
   49.7212    5.4614   19.0016 H   0  0  0  0  0  0  0  0  0  0  0  0
   50.7813    4.6090   16.8572 H   0  0  0  0  0  0  0  0  0  0  0  0
   49.2050    4.0375   16.3325 H   0  0  0  0  0  0  0  0  0  0  0  0
   47.1154    4.8305   17.4994 H   0  0  0  0  0  0  0  0  0  0  0  0
   47.6412    4.0838   18.9968 H   0  0  0  0  0  0  0  0  0  0  0  0
   46.9120    7.0357   18.6496 H   0  0  0  0  0  0  0  0  0  0  0  0
   45.9186    5.7805   19.3707 H   0  0  0  0  0  0  0  0  0  0  0  0
   50.6110    3.1429   18.9071 H   0  0  0  0  0  0  0  0  0  0  0  0
   49.0829    2.5034   18.2960 H   0  0  0  0  0  0  0  0  0  0  0  0
   50.9431    0.9993   17.7162 H   0  0  0  0  0  0  0  0  0  0  0  0
   51.7767    2.3064   16.8587 H   0  0  0  0  0  0  0  0  0  0  0  0
   50.2358    1.6791   16.2404 H   0  0  0  0  0  0  0  0  0  0  0  0
   46.9528    7.0719   21.1476 H   0  0  0  0  0  0  0  0  0  0  0  0
   48.5714    6.8189   20.4894 H   0  0  0  0  0  0  0  0  0  0  0  0
   47.6641    5.4498   21.1657 H   0  0  0  0  0  0  0  0  0  0  0  0
   47.3556    4.4277   19.2646 H   0  0  0  0  0  0  0  0  0  0  0  0
   46.6911    3.1744   15.6709 H   0  0  0  0  0  0  0  0  0  0  0  0
   48.5765    5.8840   16.8718 H   0  0  0  0  0  0  0  0  0  0  0  0
   47.0301    6.2102   17.6164 H   0  0  0  0  0  0  0  0  0  0  0  0
   49.1464    2.7322   19.0379 H   0  0  0  0  0  0  0  0  0  0  0  0
   49.7517    4.2881   19.5695 H   0  0  0  0  0  0  0  0  0  0  0  0
   48.7383    7.8357   18.2797 H   0  0  0  0  0  0  0  0  0  0  0  0
   49.7684    6.5805   18.9434 H   0  0  0  0  0  0  0  0  0  0  0  0
   50.5854    4.7726   17.2591 H   0  0  0  0  0  0  0  0  0  0  0  0
   49.9250    3.2371   16.6917 H   0  0  0  0  0  0  0  0  0  0  0  0
   52.3424    3.0513   17.1574 H   0  0  0  0  0  0  0  0  0  0  0  0
   52.0872    3.5549   18.8371 H   0  0  0  0  0  0  0  0  0  0  0  0
   51.4308    2.0089   18.2626 H   0  0  0  0  0  0  0  0  0  0  0  0
   48.4781    7.8135   20.6928 H   0  0  0  0  0  0  0  0  0  0  0  0
   46.9583    7.2573   19.9730 H   0  0  0  0  0  0  0  0  0  0  0  0
   48.0808    6.0933   20.7077 H   0  0  0  0  0  0  0  0  0  0  0  0
  3  2  1  0
  4  2  2  0
  5  2  1  0
  6  5  1  0
  7  5  1  0
  8  7  1  0
  9  6  1  0
 10  9  1  0
 11  8  1  0
 13 12  2  0
 14 12  1  0
 15 12  1  0
 16 14  1  0
 17 14  1  0
 18 16  1  0
 19 17  1  0
 20 19  1  0
 21 18  1  0
  5 22  1  0
  6 23  1  0
  6 24  1  0
  7 25  1  0
  7 26  1  0
  8 27  1  0
  8 28  1  0
  9 29  1  0
  9 30  1  0
 10 31  1  0
 10 32  1  0
 10 33  1  0
 11 34  1  0
 11 35  1  0
 11 36  1  0
 14 37  1  0
 15 38  1  0
 16 39  1  0
 16 40  1  0
 17 41  1  0
 17 42  1  0
 18 43  1  0
 18 44  1  0
 19 45  1  0
 19 46  1  0
 20 47  1  0
 20 48  1  0
 20 49  1  0
 21 50  1  0
 21 51  1  0
 21 52  1  0
M  CHG  2   1   1   3  -1
M  END
> <Uni-Dock RESULT> 
ENERGY=   -4.430  LOWER_BOUND=    6.984  UPPER_BOUND=    8.253
INTER + INTRA:          -4.430
INTER:                  -4.430
INTRA:                   0.000
UNBOUND:                 0.000

$$$$

     RDKit          3D

 52 49  0  0  0  0  0  0  0  0999 V2000
   48.3153    5.6438   18.8900 Na  0  0  0  0  0 15  0  0  0  0  0  0
   50.0815    5.5657   17.5974 C   0  0  0  0  0  0  0  0  0  0  0  0
   50.0001    5.9089   16.3828 O   0  0  0  0  0  0  0  0  0  0  0  0
   51.0817    5.1517   18.2483 O   0  0  0  0  0  0  0  0  0  0  0  0
   48.7597    5.6805   18.3840 C   0  0  0  0  0  0  0  0  0  0  0  0
   48.9203    6.9420   19.2525 C   0  0  0  0  0  0  0  0  0  0  0  0
   48.4729    4.4223   19.2158 C   0  0  0  0  0  0  0  0  0  0  0  0
   48.3603    3.1273   18.4012 C   0  0  0  0  0  0  0  0  0  0  0  0
   47.6107    7.3903   19.9067 C   0  0  0  0  0  0  0  0  0  0  0  0
   47.7899    8.6951   20.6684 C   0  0  0  0  0  0  0  0  0  0  0  0
   47.2213    3.1394   17.3936 C   0  0  0  0  0  0  0  0  0  0  0  0
   48.6981    4.8918   21.0309 C   0  0  0  0  0  0  0  0  0  0  0  0
   47.9885    4.7155   22.0095 O   0  0  0  0  0  0  0  0  0  0  0  0
   48.2167    4.9185   19.5920 C   0  0  0  0  0  0  0  0  0  0  0  0
   50.0098    5.1384   21.1909 O   0  0  0  0  0  0  0  0  0  0  0  0
   49.3392    4.6062   18.5837 C   0  0  0  0  0  0  0  0  0  0  0  0
   47.4510    6.2278   19.3314 C   0  0  0  0  0  0  0  0  0  0  0  0
   48.9029    4.5216   17.1173 C   0  0  0  0  0  0  0  0  0  0  0  0
   48.3294    7.4813   19.2718 C   0  0  0  0  0  0  0  0  0  0  0  0
   47.4898    8.7339   19.0683 C   0  0  0  0  0  0  0  0  0  0  0  0
   47.8809    3.4285   16.8466 C   0  0  0  0  0  0  0  0  0  0  0  0
   47.9391    5.8471   17.6755 H   0  0  0  0  0  0  0  0  0  0  0  0
   49.3013    7.7648   18.6324 H   0  0  0  0  0  0  0  0  0  0  0  0
   49.6742    6.7708   20.0322 H   0  0  0  0  0  0  0  0  0  0  0  0
   49.2588    4.2848   19.9695 H   0  0  0  0  0  0  0  0  0  0  0  0
   47.5372    4.5548   19.7713 H   0  0  0  0  0  0  0  0  0  0  0  0
   49.3024    2.9159   17.8834 H   0  0  0  0  0  0  0  0  0  0  0  0
   48.1972    2.2969   19.0990 H   0  0  0  0  0  0  0  0  0  0  0  0
   46.8386    7.5259   19.1406 H   0  0  0  0  0  0  0  0  0  0  0  0
   47.2500    6.6266   20.6034 H   0  0  0  0  0  0  0  0  0  0  0  0
   46.8448    8.9965   21.1308 H   0  0  0  0  0  0  0  0  0  0  0  0
   48.1120    9.4995   19.9995 H   0  0  0  0  0  0  0  0  0  0  0  0
   48.5369    8.5867   21.4612 H   0  0  0  0  0  0  0  0  0  0  0  0
   47.1237    2.1543   16.9260 H   0  0  0  0  0  0  0  0  0  0  0  0
   47.3986    3.8669   16.5961 H   0  0  0  0  0  0  0  0  0  0  0  0
   46.2697    3.3798   17.8781 H   0  0  0  0  0  0  0  0  0  0  0  0
   47.4952    4.0923   19.5349 H   0  0  0  0  0  0  0  0  0  0  0  0
   50.1378    5.1124   22.1623 H   0  0  0  0  0  0  0  0  0  0  0  0
   50.1345    5.3582   18.6582 H   0  0  0  0  0  0  0  0  0  0  0  0
   49.8098    3.6539   18.8635 H   0  0  0  0  0  0  0  0  0  0  0  0
   46.6989    6.3631   20.1200 H   0  0  0  0  0  0  0  0  0  0  0  0
   46.8899    6.1377   18.3931 H   0  0  0  0  0  0  0  0  0  0  0  0
   49.7922    4.3223   16.5070 H   0  0  0  0  0  0  0  0  0  0  0  0
   48.5070    5.4849   16.7787 H   0  0  0  0  0  0  0  0  0  0  0  0
   49.0474    7.4064   18.4486 H   0  0  0  0  0  0  0  0  0  0  0  0
   48.9036    7.5873   20.1986 H   0  0  0  0  0  0  0  0  0  0  0  0
   48.1333    9.6182   19.0251 H   0  0  0  0  0  0  0  0  0  0  0  0
   46.9242    8.6792   18.1326 H   0  0  0  0  0  0  0  0  0  0  0  0
   46.7813    8.8698   19.8916 H   0  0  0  0  0  0  0  0  0  0  0  0
   47.6950    3.3470   15.7708 H   0  0  0  0  0  0  0  0  0  0  0  0
   48.2397    2.4577   17.2025 H   0  0  0  0  0  0  0  0  0  0  0  0
   46.9244    3.6442   17.3312 H   0  0  0  0  0  0  0  0  0  0  0  0
  3  2  1  0
  4  2  2  0
  5  2  1  0
  6  5  1  0
  7  5  1  0
  8  7  1  0
  9  6  1  0
 10  9  1  0
 11  8  1  0
 13 12  2  0
 14 12  1  0
 15 12  1  0
 16 14  1  0
 17 14  1  0
 18 16  1  0
 19 17  1  0
 20 19  1  0
 21 18  1  0
  5 22  1  0
  6 23  1  0
  6 24  1  0
  7 25  1  0
  7 26  1  0
  8 27  1  0
  8 28  1  0
  9 29  1  0
  9 30  1  0
 10 31  1  0
 10 32  1  0
 10 33  1  0
 11 34  1  0
 11 35  1  0
 11 36  1  0
 14 37  1  0
 15 38  1  0
 16 39  1  0
 16 40  1  0
 17 41  1  0
 17 42  1  0
 18 43  1  0
 18 44  1  0
 19 45  1  0
 19 46  1  0
 20 47  1  0
 20 48  1  0
 20 49  1  0
 21 50  1  0
 21 51  1  0
 21 52  1  0
M  CHG  2   1   1   3  -1
M  END
> <Uni-Dock RESULT> 
ENERGY=   -4.365  LOWER_BOUND=    7.312  UPPER_BOUND=    9.452
INTER + INTRA:          -4.365
INTER:                  -4.365
INTRA:                   0.000
UNBOUND:                 0.000

$$$$

     RDKit          3D

 52 49  0  0  0  0  0  0  0  0999 V2000
   42.6213   11.3521    9.7629 Na  0  0  0  0  0 15  0  0  0  0  0  0
   43.2827    9.6632   10.9902 C   0  0  0  0  0  0  0  0  0  0  0  0
   42.9237    8.4850   10.7027 O   0  0  0  0  0  0  0  0  0  0  0  0
   44.0132   10.0702   11.9369 O   0  0  0  0  0  0  0  0  0  0  0  0
   42.7459   10.7466   10.0327 C   0  0  0  0  0  0  0  0  0  0  0  0
   43.9492   11.1336    9.1530 C   0  0  0  0  0  0  0  0  0  0  0  0
   42.1575   11.9452   10.7905 C   0  0  0  0  0  0  0  0  0  0  0  0
   40.9907   11.6023   11.7255 C   0  0  0  0  0  0  0  0  0  0  0  0
   43.5598   11.9989    7.9514 C   0  0  0  0  0  0  0  0  0  0  0  0
   44.7572   12.2708    7.0530 C   0  0  0  0  0  0  0  0  0  0  0  0
   39.7824   11.0256   11.0044 C   0  0  0  0  0  0  0  0  0  0  0  0
   43.3370   13.3979   10.5363 C   0  0  0  0  0  0  0  0  0  0  0  0
   43.1401   14.5531   10.1916 O   0  0  0  0  0  0  0  0  0  0  0  0
   42.4207   12.2255   10.2378 C   0  0  0  0  0  0  0  0  0  0  0  0
   44.4670   13.0776   11.1901 O   0  0  0  0  0  0  0  0  0  0  0  0
   42.6116   11.0559   11.2226 C   0  0  0  0  0  0  0  0  0  0  0  0
   42.5356   11.8507    8.7495 C   0  0  0  0  0  0  0  0  0  0  0  0
   41.6512    9.8763   11.0388 C   0  0  0  0  0  0  0  0  0  0  0  0
   43.8553   11.1778    8.3595 C   0  0  0  0  0  0  0  0  0  0  0  0
   43.9089   10.8934    6.8656 C   0  0  0  0  0  0  0  0  0  0  0  0
   40.1876   10.2465   11.2210 C   0  0  0  0  0  0  0  0  0  0  0  0
   41.9742   10.3025    9.3921 H   0  0  0  0  0  0  0  0  0  0  0  0
   44.4384   10.2219    8.7838 H   0  0  0  0  0  0  0  0  0  0  0  0
   44.7008   11.6640    9.7524 H   0  0  0  0  0  0  0  0  0  0  0  0
   42.9403   12.4328   11.3854 H   0  0  0  0  0  0  0  0  0  0  0  0
   41.8065   12.6966   10.0735 H   0  0  0  0  0  0  0  0  0  0  0  0
   41.3158   10.9056   12.5060 H   0  0  0  0  0  0  0  0  0  0  0  0
   40.6821   12.5210   12.2392 H   0  0  0  0  0  0  0  0  0  0  0  0
   42.7804   11.4964    7.3671 H   0  0  0  0  0  0  0  0  0  0  0  0
   43.1507   12.9575    8.2868 H   0  0  0  0  0  0  0  0  0  0  0  0
   44.4594   12.8926    6.2029 H   0  0  0  0  0  0  0  0  0  0  0  0
   45.1742   11.3377    6.6610 H   0  0  0  0  0  0  0  0  0  0  0  0
   45.5458   12.7975    7.5997 H   0  0  0  0  0  0  0  0  0  0  0  0
   38.9492   10.9067   11.7046 H   0  0  0  0  0  0  0  0  0  0  0  0
   40.0001   10.0408   10.5807 H   0  0  0  0  0  0  0  0  0  0  0  0
   39.4537   11.6866   10.1964 H   0  0  0  0  0  0  0  0  0  0  0  0
   41.4111   12.6243   10.4051 H   0  0  0  0  0  0  0  0  0  0  0  0
   44.9425   13.9308   11.2708 H   0  0  0  0  0  0  0  0  0  0  0  0
   43.6372   10.6716   11.1592 H   0  0  0  0  0  0  0  0  0  0  0  0
   42.5047   11.4368   12.2474 H   0  0  0  0  0  0  0  0  0  0  0  0
   42.4115   12.7581    8.1435 H   0  0  0  0  0  0  0  0  0  0  0  0
   41.7023   11.1912    8.4776 H   0  0  0  0  0  0  0  0  0  0  0  0
   41.9081    9.1079   11.7781 H   0  0  0  0  0  0  0  0  0  0  0  0
   41.7927    9.4162   10.0551 H   0  0  0  0  0  0  0  0  0  0  0  0
   43.9763   10.2323    8.8981 H   0  0  0  0  0  0  0  0  0  0  0  0
   44.7023   11.8184    8.6280 H   0  0  0  0  0  0  0  0  0  0  0  0
   44.8561   10.4104    6.6058 H   0  0  0  0  0  0  0  0  0  0  0  0
   43.0940   10.2277    6.5636 H   0  0  0  0  0  0  0  0  0  0  0  0
   43.8300   11.8190    6.2865 H   0  0  0  0  0  0  0  0  0  0  0  0
   39.5659    9.3460   11.1875 H   0  0  0  0  0  0  0  0  0  0  0  0
   40.0229   10.7357   12.1862 H   0  0  0  0  0  0  0  0  0  0  0  0
   39.8411   10.9162   10.4286 H   0  0  0  0  0  0  0  0  0  0  0  0
  3  2  1  0
  4  2  2  0
  5  2  1  0
  6  5  1  0
  7  5  1  0
  8  7  1  0
  9  6  1  0
 10  9  1  0
 11  8  1  0
 13 12  2  0
 14 12  1  0
 15 12  1  0
 16 14  1  0
 17 14  1  0
 18 16  1  0
 19 17  1  0
 20 19  1  0
 21 18  1  0
  5 22  1  0
  6 23  1  0
  6 24  1  0
  7 25  1  0
  7 26  1  0
  8 27  1  0
  8 28  1  0
  9 29  1  0
  9 30  1  0
 10 31  1  0
 10 32  1  0
 10 33  1  0
 11 34  1  0
 11 35  1  0
 11 36  1  0
 14 37  1  0
 15 38  1  0
 16 39  1  0
 16 40  1  0
 17 41  1  0
 17 42  1  0
 18 43  1  0
 18 44  1  0
 19 45  1  0
 19 46  1  0
 20 47  1  0
 20 48  1  0
 20 49  1  0
 21 50  1  0
 21 51  1  0
 21 52  1  0
M  CHG  2   1   1   3  -1
M  END
> <Uni-Dock RESULT> 
ENERGY=   -4.175  LOWER_BOUND=    5.264  UPPER_BOUND=    7.427
INTER + INTRA:          -4.175
INTER:                  -4.175
INTRA:                   0.000
UNBOUND:                 0.000

$$$$

     RDKit          3D

 52 49  0  0  0  0  0  0  0  0999 V2000
   47.0088    7.0799   12.4886 Na  0  0  0  0  0 15  0  0  0  0  0  0
   47.1508    8.9508   13.6180 C   0  0  0  0  0  0  0  0  0  0  0  0
   47.0686   10.0640   13.0234 O   0  0  0  0  0  0  0  0  0  0  0  0
   47.3145    8.7084   14.8469 O   0  0  0  0  0  0  0  0  0  0  0  0
   47.0258    7.7219   12.6943 C   0  0  0  0  0  0  0  0  0  0  0  0
   45.6062    7.1790   12.9421 C   0  0  0  0  0  0  0  0  0  0  0  0
   48.1157    6.6774   12.9741 C   0  0  0  0  0  0  0  0  0  0  0  0
   49.5520    7.1863   12.7962 C   0  0  0  0  0  0  0  0  0  0  0  0
   45.1816    6.1216   11.9195 C   0  0  0  0  0  0  0  0  0  0  0  0
   43.7392    5.6888   12.1361 C   0  0  0  0  0  0  0  0  0  0  0  0
   49.8660    7.6386   11.3787 C   0  0  0  0  0  0  0  0  0  0  0  0
   47.2707    5.1936   13.7805 C   0  0  0  0  0  0  0  0  0  0  0  0
   47.3240    3.9977   13.5376 O   0  0  0  0  0  0  0  0  0  0  0  0
   47.5853    6.3036   12.7945 C   0  0  0  0  0  0  0  0  0  0  0  0
   46.8556    5.6136   14.9881 O   0  0  0  0  0  0  0  0  0  0  0  0
   47.9686    7.6246   13.4889 C   0  0  0  0  0  0  0  0  0  0  0  0
   46.4461    6.4138   11.7656 C   0  0  0  0  0  0  0  0  0  0  0  0
   48.3921    8.7619   12.5535 C   0  0  0  0  0  0  0  0  0  0  0  0
   45.1417    6.9987   12.3160 C   0  0  0  0  0  0  0  0  0  0  0  0
   44.0543    7.0194   11.2516 C   0  0  0  0  0  0  0  0  0  0  0  0
   49.6220    8.4402   11.7191 C   0  0  0  0  0  0  0  0  0  0  0  0
   47.0948    8.0542   11.6513 H   0  0  0  0  0  0  0  0  0  0  0  0
   44.8876    8.0091   12.9060 H   0  0  0  0  0  0  0  0  0  0  0  0
   45.5346    6.7548   13.9523 H   0  0  0  0  0  0  0  0  0  0  0  0
   48.0130    6.2943   13.9974 H   0  0  0  0  0  0  0  0  0  0  0  0
   47.9777    5.8159   12.3104 H   0  0  0  0  0  0  0  0  0  0  0  0
   49.7586    8.0052   13.4941 H   0  0  0  0  0  0  0  0  0  0  0  0
   50.2386    6.3729   13.0609 H   0  0  0  0  0  0  0  0  0  0  0  0
   45.2872    6.5212   10.9044 H   0  0  0  0  0  0  0  0  0  0  0  0
   45.8252    5.2389   11.9924 H   0  0  0  0  0  0  0  0  0  0  0  0
   43.4563    4.9314   11.3984 H   0  0  0  0  0  0  0  0  0  0  0  0
   43.0547    6.5366   12.0314 H   0  0  0  0  0  0  0  0  0  0  0  0
   43.6046    5.2588   13.1337 H   0  0  0  0  0  0  0  0  0  0  0  0
   50.9294    7.8834   11.2900 H   0  0  0  0  0  0  0  0  0  0  0  0
   49.2980    8.5333   11.1077 H   0  0  0  0  0  0  0  0  0  0  0  0
   49.6388    6.8500   10.6545 H   0  0  0  0  0  0  0  0  0  0  0  0
   48.4799    5.9476   12.2660 H   0  0  0  0  0  0  0  0  0  0  0  0
   46.6725    4.7837   15.4762 H   0  0  0  0  0  0  0  0  0  0  0  0
   47.1348    7.9842   14.1045 H   0  0  0  0  0  0  0  0  0  0  0  0
   48.7885    7.4280   14.1930 H   0  0  0  0  0  0  0  0  0  0  0  0
   46.2385    5.4161   11.3564 H   0  0  0  0  0  0  0  0  0  0  0  0
   46.7828    7.0226   10.9175 H   0  0  0  0  0  0  0  0  0  0  0  0
   48.6112    9.6448   13.1662 H   0  0  0  0  0  0  0  0  0  0  0  0
   47.5650    9.0434   11.8930 H   0  0  0  0  0  0  0  0  0  0  0  0
   45.3010    8.0223   12.6704 H   0  0  0  0  0  0  0  0  0  0  0  0
   44.7903    6.4078   13.1688 H   0  0  0  0  0  0  0  0  0  0  0  0
   43.1317    7.4427   11.6611 H   0  0  0  0  0  0  0  0  0  0  0  0
   44.3565    7.6290   10.3941 H   0  0  0  0  0  0  0  0  0  0  0  0
   43.8346    6.0080   10.8950 H   0  0  0  0  0  0  0  0  0  0  0  0
   49.9369    9.3260   11.1582 H   0  0  0  0  0  0  0  0  0  0  0  0
   50.4570    8.1270   12.3538 H   0  0  0  0  0  0  0  0  0  0  0  0
   49.4194    7.6460   10.9948 H   0  0  0  0  0  0  0  0  0  0  0  0
  3  2  1  0
  4  2  2  0
  5  2  1  0
  6  5  1  0
  7  5  1  0
  8  7  1  0
  9  6  1  0
 10  9  1  0
 11  8  1  0
 13 12  2  0
 14 12  1  0
 15 12  1  0
 16 14  1  0
 17 14  1  0
 18 16  1  0
 19 17  1  0
 20 19  1  0
 21 18  1  0
  5 22  1  0
  6 23  1  0
  6 24  1  0
  7 25  1  0
  7 26  1  0
  8 27  1  0
  8 28  1  0
  9 29  1  0
  9 30  1  0
 10 31  1  0
 10 32  1  0
 10 33  1  0
 11 34  1  0
 11 35  1  0
 11 36  1  0
 14 37  1  0
 15 38  1  0
 16 39  1  0
 16 40  1  0
 17 41  1  0
 17 42  1  0
 18 43  1  0
 18 44  1  0
 19 45  1  0
 19 46  1  0
 20 47  1  0
 20 48  1  0
 20 49  1  0
 21 50  1  0
 21 51  1  0
 21 52  1  0
M  CHG  2   1   1   3  -1
M  END
> <Uni-Dock RESULT> 
ENERGY=   -4.168  LOWER_BOUND=    2.822  UPPER_BOUND=    4.043
INTER + INTRA:          -4.168
INTER:                  -4.168
INTRA:                   0.000
UNBOUND:                 0.000

$$$$

     RDKit          3D

 52 49  0  0  0  0  0  0  0  0999 V2000
   48.4913    5.0160   20.0828 Na  0  0  0  0  0 15  0  0  0  0  0  0
   47.5902    6.5848   18.8486 C   0  0  0  0  0  0  0  0  0  0  0  0
   46.3362    6.6329   18.6914 O   0  0  0  0  0  0  0  0  0  0  0  0
   48.4865    7.3422   18.3810 O   0  0  0  0  0  0  0  0  0  0  0  0
   48.0778    5.4311   19.7488 C   0  0  0  0  0  0  0  0  0  0  0  0
   48.4417    6.0967   21.0889 C   0  0  0  0  0  0  0  0  0  0  0  0
   49.2583    4.6730   19.1251 C   0  0  0  0  0  0  0  0  0  0  0  0
   48.9632    4.0384   17.7600 C   0  0  0  0  0  0  0  0  0  0  0  0
   48.6880    5.0866   22.2128 C   0  0  0  0  0  0  0  0  0  0  0  0
   48.9406    5.7853   23.5404 C   0  0  0  0  0  0  0  0  0  0  0  0
   47.8645    2.9878   17.8021 C   0  0  0  0  0  0  0  0  0  0  0  0
   50.7904    5.0911   20.1467 C   0  0  0  0  0  0  0  0  0  0  0  0
   51.6503    4.3831   20.6481 O   0  0  0  0  0  0  0  0  0  0  0  0
   49.3862    4.6428   19.7855 C   0  0  0  0  0  0  0  0  0  0  0  0
   51.0407    6.3931   19.9250 O   0  0  0  0  0  0  0  0  0  0  0  0
   48.7372    5.5319   18.7072 C   0  0  0  0  0  0  0  0  0  0  0  0
   48.5579    4.4654   21.0704 C   0  0  0  0  0  0  0  0  0  0  0  0
   47.3550    5.0797   18.2249 C   0  0  0  0  0  0  0  0  0  0  0  0
   48.1765    5.7731   21.7710 C   0  0  0  0  0  0  0  0  0  0  0  0
   47.4104    5.5059   23.0584 C   0  0  0  0  0  0  0  0  0  0  0  0
   47.3531    3.7010   17.5834 C   0  0  0  0  0  0  0  0  0  0  0  0
   47.2448    4.7379   19.9186 H   0  0  0  0  0  0  0  0  0  0  0  0
   47.6280    6.7686   21.3944 H   0  0  0  0  0  0  0  0  0  0  0  0
   49.3320    6.7279   20.9681 H   0  0  0  0  0  0  0  0  0  0  0  0
   50.1171    5.3466   19.0105 H   0  0  0  0  0  0  0  0  0  0  0  0
   49.5835    3.8767   19.8048 H   0  0  0  0  0  0  0  0  0  0  0  0
   48.7022    4.8091   17.0264 H   0  0  0  0  0  0  0  0  0  0  0  0
   49.8830    3.5639   17.3969 H   0  0  0  0  0  0  0  0  0  0  0  0
   47.8205    4.4246   22.3157 H   0  0  0  0  0  0  0  0  0  0  0  0
   49.5535    4.4581   21.9793 H   0  0  0  0  0  0  0  0  0  0  0  0
   49.1174    5.0474   24.3291 H   0  0  0  0  0  0  0  0  0  0  0  0
   48.0802    6.3953   23.8334 H   0  0  0  0  0  0  0  0  0  0  0  0
   49.8191    6.4357   23.4802 H   0  0  0  0  0  0  0  0  0  0  0  0
   47.7781    2.4961   16.8277 H   0  0  0  0  0  0  0  0  0  0  0  0
   46.8925    3.4326   18.0343 H   0  0  0  0  0  0  0  0  0  0  0  0
   48.0829    2.2197   18.5506 H   0  0  0  0  0  0  0  0  0  0  0  0
   49.5280    3.6492   19.3393 H   0  0  0  0  0  0  0  0  0  0  0  0
   51.9625    6.5122   20.2360 H   0  0  0  0  0  0  0  0  0  0  0  0
   48.6493    6.5634   19.0702 H   0  0  0  0  0  0  0  0  0  0  0  0
   49.4101    5.5831   17.8405 H   0  0  0  0  0  0  0  0  0  0  0  0
   49.1237    3.8414   21.7750 H   0  0  0  0  0  0  0  0  0  0  0  0
   47.6451    3.9036   20.8372 H   0  0  0  0  0  0  0  0  0  0  0  0
   46.9967    5.8058   17.4850 H   0  0  0  0  0  0  0  0  0  0  0  0
   46.6350    5.1006   19.0499 H   0  0  0  0  0  0  0  0  0  0  0  0
   47.5520    6.3897   21.1163 H   0  0  0  0  0  0  0  0  0  0  0  0
   49.0749    6.3532   22.0082 H   0  0  0  0  0  0  0  0  0  0  0  0
   47.1437    6.4502   23.5433 H   0  0  0  0  0  0  0  0  0  0  0  0
   46.4864    4.9542   22.8576 H   0  0  0  0  0  0  0  0  0  0  0  0
   48.0143    4.9225   23.7607 H   0  0  0  0  0  0  0  0  0  0  0  0
   46.3658    3.4843   17.1629 H   0  0  0  0  0  0  0  0  0  0  0  0
   48.0862    3.6434   16.7727 H   0  0  0  0  0  0  0  0  0  0  0  0
   47.5798    2.9183   18.3130 H   0  0  0  0  0  0  0  0  0  0  0  0
  3  2  1  0
  4  2  2  0
  5  2  1  0
  6  5  1  0
  7  5  1  0
  8  7  1  0
  9  6  1  0
 10  9  1  0
 11  8  1  0
 13 12  2  0
 14 12  1  0
 15 12  1  0
 16 14  1  0
 17 14  1  0
 18 16  1  0
 19 17  1  0
 20 19  1  0
 21 18  1  0
  5 22  1  0
  6 23  1  0
  6 24  1  0
  7 25  1  0
  7 26  1  0
  8 27  1  0
  8 28  1  0
  9 29  1  0
  9 30  1  0
 10 31  1  0
 10 32  1  0
 10 33  1  0
 11 34  1  0
 11 35  1  0
 11 36  1  0
 14 37  1  0
 15 38  1  0
 16 39  1  0
 16 40  1  0
 17 41  1  0
 17 42  1  0
 18 43  1  0
 18 44  1  0
 19 45  1  0
 19 46  1  0
 20 47  1  0
 20 48  1  0
 20 49  1  0
 21 50  1  0
 21 51  1  0
 21 52  1  0
M  CHG  2   1   1   3  -1
M  END
> <Uni-Dock RESULT> 
ENERGY=   -4.139  LOWER_BOUND=    8.121  UPPER_BOUND=   10.162
INTER + INTRA:          -4.139
INTER:                  -4.139
INTRA:                   0.000
UNBOUND:                 0.000

$$$$

     RDKit          3D

 52 49  0  0  0  0  0  0  0  0999 V2000
   47.8323    8.1783   21.0926 Na  0  0  0  0  0 15  0  0  0  0  0  0
   47.8621    6.8304   19.3668 C   0  0  0  0  0  0  0  0  0  0  0  0
   46.8042    6.2460   18.9941 O   0  0  0  0  0  0  0  0  0  0  0  0
   49.0263    6.7679   18.8808 O   0  0  0  0  0  0  0  0  0  0  0  0
   47.6856    7.7531   20.5901 C   0  0  0  0  0  0  0  0  0  0  0  0
   47.6981    9.1824   20.0172 C   0  0  0  0  0  0  0  0  0  0  0  0
   48.7795    7.5287   21.6438 C   0  0  0  0  0  0  0  0  0  0  0  0
   48.8457    6.1026   22.2053 C   0  0  0  0  0  0  0  0  0  0  0  0
   47.2605   10.2399   21.0342 C   0  0  0  0  0  0  0  0  0  0  0  0
   47.1858   11.6210   20.4004 C   0  0  0  0  0  0  0  0  0  0  0  0
   47.5789    5.6744   22.9295 C   0  0  0  0  0  0  0  0  0  0  0  0
   49.8937    9.0531   21.6227 C   0  0  0  0  0  0  0  0  0  0  0  0
   50.3075    9.7691   22.5217 O   0  0  0  0  0  0  0  0  0  0  0  0
   48.6493    8.1874   21.6935 C   0  0  0  0  0  0  0  0  0  0  0  0
   50.5264    9.0344   20.4368 O   0  0  0  0  0  0  0  0  0  0  0  0
   48.6782    7.0214   20.6866 C   0  0  0  0  0  0  0  0  0  0  0  0
   47.3981    9.0807   21.6218 C   0  0  0  0  0  0  0  0  0  0  0  0
   47.4960    6.0501   20.7693 C   0  0  0  0  0  0  0  0  0  0  0  0
   47.1328    9.7005   20.2463 C   0  0  0  0  0  0  0  0  0  0  0  0
   45.9141   10.6112   20.2776 C   0  0  0  0  0  0  0  0  0  0  0  0
   47.3778    5.3451   22.1114 C   0  0  0  0  0  0  0  0  0  0  0  0
   46.7016    7.5650   21.0367 H   0  0  0  0  0  0  0  0  0  0  0  0
   47.0265    9.2325   19.1493 H   0  0  0  0  0  0  0  0  0  0  0  0
   48.7003    9.4317   19.6445 H   0  0  0  0  0  0  0  0  0  0  0  0
   49.7620    7.7758   21.2218 H   0  0  0  0  0  0  0  0  0  0  0  0
   48.6266    8.2161   22.4840 H   0  0  0  0  0  0  0  0  0  0  0  0
   49.0694    5.3856   21.4077 H   0  0  0  0  0  0  0  0  0  0  0  0
   49.6832    6.0513   22.9118 H   0  0  0  0  0  0  0  0  0  0  0  0
   46.2773    9.9797   21.4429 H   0  0  0  0  0  0  0  0  0  0  0  0
   47.9637   10.2785   21.8724 H   0  0  0  0  0  0  0  0  0  0  0  0
   46.8750   12.3623   21.1432 H   0  0  0  0  0  0  0  0  0  0  0  0
   46.4611   11.6382   19.5801 H   0  0  0  0  0  0  0  0  0  0  0  0
   48.1606   11.9240   20.0049 H   0  0  0  0  0  0  0  0  0  0  0  0
   47.7280    4.6973   23.4002 H   0  0  0  0  0  0  0  0  0  0  0  0
   46.7341    5.5830   22.2405 H   0  0  0  0  0  0  0  0  0  0  0  0
   47.3123    6.3905   23.7131 H   0  0  0  0  0  0  0  0  0  0  0  0
   48.6869    7.7448   22.6980 H   0  0  0  0  0  0  0  0  0  0  0  0
   51.2726    9.6582   20.5578 H   0  0  0  0  0  0  0  0  0  0  0  0
   48.7284    7.4082   19.6612 H   0  0  0  0  0  0  0  0  0  0  0  0
   49.6074    6.4536   20.8310 H   0  0  0  0  0  0  0  0  0  0  0  0
   47.4957    9.8893   22.3584 H   0  0  0  0  0  0  0  0  0  0  0  0
   46.5205    8.4987   21.9286 H   0  0  0  0  0  0  0  0  0  0  0  0
   47.6233    5.2895   19.9893 H   0  0  0  0  0  0  0  0  0  0  0  0
   46.5577    6.5679   20.5438 H   0  0  0  0  0  0  0  0  0  0  0  0
   46.9627    8.9173   19.5003 H   0  0  0  0  0  0  0  0  0  0  0  0
   48.0008   10.2826   19.9180 H   0  0  0  0  0  0  0  0  0  0  0  0
   45.7380   11.0421   19.2870 H   0  0  0  0  0  0  0  0  0  0  0  0
   45.0173   10.0562   20.5710 H   0  0  0  0  0  0  0  0  0  0  0  0
   46.0569   11.4341   20.9851 H   0  0  0  0  0  0  0  0  0  0  0  0
   46.5875    4.5887   22.0694 H   0  0  0  0  0  0  0  0  0  0  0  0
   48.3136    4.8426   22.3755 H   0  0  0  0  0  0  0  0  0  0  0  0
   47.1218    6.0455   22.9116 H   0  0  0  0  0  0  0  0  0  0  0  0
  3  2  1  0
  4  2  2  0
  5  2  1  0
  6  5  1  0
  7  5  1  0
  8  7  1  0
  9  6  1  0
 10  9  1  0
 11  8  1  0
 13 12  2  0
 14 12  1  0
 15 12  1  0
 16 14  1  0
 17 14  1  0
 18 16  1  0
 19 17  1  0
 20 19  1  0
 21 18  1  0
  5 22  1  0
  6 23  1  0
  6 24  1  0
  7 25  1  0
  7 26  1  0
  8 27  1  0
  8 28  1  0
  9 29  1  0
  9 30  1  0
 10 31  1  0
 10 32  1  0
 10 33  1  0
 11 34  1  0
 11 35  1  0
 11 36  1  0
 14 37  1  0
 15 38  1  0
 16 39  1  0
 16 40  1  0
 17 41  1  0
 17 42  1  0
 18 43  1  0
 18 44  1  0
 19 45  1  0
 19 46  1  0
 20 47  1  0
 20 48  1  0
 20 49  1  0
 21 50  1  0
 21 51  1  0
 21 52  1  0
M  CHG  2   1   1   3  -1
M  END
> <Uni-Dock RESULT> 
ENERGY=   -4.092  LOWER_BOUND=    9.014  UPPER_BOUND=   11.219
INTER + INTRA:          -4.092
INTER:                  -4.092
INTRA:                   0.000
UNBOUND:                 0.000

$$$$
