
     RDKit          3D

 52 49  0  0  0  0  0  0  0  0999 V2000
   45.0432    5.5031   11.1600 Na  0  0  0  0  0 15  0  0  0  0  0  0
   42.9063    5.4918   12.2314 C   0  0  0  0  0  0  0  0  0  0  0  0
   42.1070    6.0172   11.4060 O   0  0  0  0  0  0  0  0  0  0  0  0
   42.6599    4.8916   13.3167 O   0  0  0  0  0  0  0  0  0  0  0  0
   44.4068    5.5937   11.8833 C   0  0  0  0  0  0  0  0  0  0  0  0
   44.7979    7.0738   12.0574 C   0  0  0  0  0  0  0  0  0  0  0  0
   44.6637    5.0915   10.4539 C   0  0  0  0  0  0  0  0  0  0  0  0
   44.4279    3.5839   10.3171 C   0  0  0  0  0  0  0  0  0  0  0  0
   46.1576    7.2796   12.7374 C   0  0  0  0  0  0  0  0  0  0  0  0
   47.3389    6.7425   11.9467 C   0  0  0  0  0  0  0  0  0  0  0  0
   44.7325    3.0999    8.9079 C   0  0  0  0  0  0  0  0  0  0  0  0
   44.8811    4.2138   12.5237 C   0  0  0  0  0  0  0  0  0  0  0  0
   45.9914    3.7103   12.5236 O   0  0  0  0  0  0  0  0  0  0  0  0
   44.3105    5.1815   11.5066 C   0  0  0  0  0  0  0  0  0  0  0  0
   44.0086    3.9371   13.5135 O   0  0  0  0  0  0  0  0  0  0  0  0
   45.0130    5.0521   10.1437 C   0  0  0  0  0  0  0  0  0  0  0  0
   44.3559    6.6158   12.0656 C   0  0  0  0  0  0  0  0  0  0  0  0
   44.6619    3.7419    9.4296 C   0  0  0  0  0  0  0  0  0  0  0  0
   45.7645    7.1947   12.2348 C   0  0  0  0  0  0  0  0  0  0  0  0
   45.7187    8.5902   12.8401 C   0  0  0  0  0  0  0  0  0  0  0  0
   45.3478    3.6474    8.0754 C   0  0  0  0  0  0  0  0  0  0  0  0
   44.9679    4.9733   12.5940 H   0  0  0  0  0  0  0  0  0  0  0  0
   44.7992    7.5868   11.0873 H   0  0  0  0  0  0  0  0  0  0  0  0
   44.0556    7.5973   12.6745 H   0  0  0  0  0  0  0  0  0  0  0  0
   45.6980    5.3103   10.1662 H   0  0  0  0  0  0  0  0  0  0  0  0
   44.0269    5.6237    9.7359 H   0  0  0  0  0  0  0  0  0  0  0  0
   45.0642    3.0428   11.0270 H   0  0  0  0  0  0  0  0  0  0  0  0
   43.3880    3.3370   10.5587 H   0  0  0  0  0  0  0  0  0  0  0  0
   46.3051    8.3554   12.8926 H   0  0  0  0  0  0  0  0  0  0  0  0
   46.1467    6.8183   13.7320 H   0  0  0  0  0  0  0  0  0  0  0  0
   47.3120    5.6509   11.8800 H   0  0  0  0  0  0  0  0  0  0  0  0
   48.2767    7.0185   12.4396 H   0  0  0  0  0  0  0  0  0  0  0  0
   47.3555    7.1556   10.9334 H   0  0  0  0  0  0  0  0  0  0  0  0
   45.7766    3.2950    8.6429 H   0  0  0  0  0  0  0  0  0  0  0  0
   44.0922    3.6003    8.1746 H   0  0  0  0  0  0  0  0  0  0  0  0
   44.5586    2.0220    8.8315 H   0  0  0  0  0  0  0  0  0  0  0  0
   43.2555    4.9108   11.3638 H   0  0  0  0  0  0  0  0  0  0  0  0
   44.4993    3.3182   14.0938 H   0  0  0  0  0  0  0  0  0  0  0  0
   44.7139    5.8909    9.5025 H   0  0  0  0  0  0  0  0  0  0  0  0
   46.1017    5.1115   10.2637 H   0  0  0  0  0  0  0  0  0  0  0  0
   43.8435    6.6399   13.0363 H   0  0  0  0  0  0  0  0  0  0  0  0
   43.7816    7.2702   11.3971 H   0  0  0  0  0  0  0  0  0  0  0  0
   43.5771    3.6761    9.2864 H   0  0  0  0  0  0  0  0  0  0  0  0
   44.9612    2.8825   10.0395 H   0  0  0  0  0  0  0  0  0  0  0  0
   46.3668    6.5485   12.8825 H   0  0  0  0  0  0  0  0  0  0  0  0
   46.2719    7.2517   11.2659 H   0  0  0  0  0  0  0  0  0  0  0  0
   45.2519    8.5734   13.8301 H   0  0  0  0  0  0  0  0  0  0  0  0
   46.7322    8.9889   12.9493 H   0  0  0  0  0  0  0  0  0  0  0  0
   45.1506    9.2757   12.2032 H   0  0  0  0  0  0  0  0  0  0  0  0
   45.0435    4.4722    7.4229 H   0  0  0  0  0  0  0  0  0  0  0  0
   45.0822    2.7078    7.5809 H   0  0  0  0  0  0  0  0  0  0  0  0
   46.4365    3.6786    8.1843 H   0  0  0  0  0  0  0  0  0  0  0  0
  3  2  1  0
  4  2  2  0
  5  2  1  0
  6  5  1  0
  7  5  1  0
  8  7  1  0
  9  6  1  0
 10  9  1  0
 11  8  1  0
 13 12  2  0
 14 12  1  0
 15 12  1  0
 16 14  1  0
 17 14  1  0
 18 16  1  0
 19 17  1  0
 20 19  1  0
 21 18  1  0
  5 22  1  0
  6 23  1  0
  6 24  1  0
  7 25  1  0
  7 26  1  0
  8 27  1  0
  8 28  1  0
  9 29  1  0
  9 30  1  0
 10 31  1  0
 10 32  1  0
 10 33  1  0
 11 34  1  0
 11 35  1  0
 11 36  1  0
 14 37  1  0
 15 38  1  0
 16 39  1  0
 16 40  1  0
 17 41  1  0
 17 42  1  0
 18 43  1  0
 18 44  1  0
 19 45  1  0
 19 46  1  0
 20 47  1  0
 20 48  1  0
 20 49  1  0
 21 50  1  0
 21 51  1  0
 21 52  1  0
M  CHG  2   1   1   3  -1
M  END
> <Uni-Dock RESULT> 
ENERGY=   -7.024  LOWER_BOUND=    0.000  UPPER_BOUND=    0.000
INTER + INTRA:          -7.024
INTER:                  -7.024
INTRA:                   0.000
UNBOUND:                 0.000

$$$$

     RDKit          3D

 52 49  0  0  0  0  0  0  0  0999 V2000
   45.2832    5.3020   11.2915 Na  0  0  0  0  0 15  0  0  0  0  0  0
   43.3786    4.6380   12.5744 C   0  0  0  0  0  0  0  0  0  0  0  0
   43.8210    3.8595   13.4658 O   0  0  0  0  0  0  0  0  0  0  0  0
   42.2288    5.1503   12.4548 O   0  0  0  0  0  0  0  0  0  0  0  0
   44.3708    5.0254   11.4571 C   0  0  0  0  0  0  0  0  0  0  0  0
   44.5877    3.7601   10.6049 C   0  0  0  0  0  0  0  0  0  0  0  0
   45.6836    5.5491   12.0600 C   0  0  0  0  0  0  0  0  0  0  0  0
   45.4995    6.8922   12.7739 C   0  0  0  0  0  0  0  0  0  0  0  0
   44.6212    4.0284    9.0948 C   0  0  0  0  0  0  0  0  0  0  0  0
   45.7776    4.9038    8.6416 C   0  0  0  0  0  0  0  0  0  0  0  0
   46.8183    7.4148   13.3222 C   0  0  0  0  0  0  0  0  0  0  0  0
   43.8335    6.4997   11.1796 C   0  0  0  0  0  0  0  0  0  0  0  0
   44.2633    7.3394   10.4073 O   0  0  0  0  0  0  0  0  0  0  0  0
   44.6064    5.3739   11.8367 C   0  0  0  0  0  0  0  0  0  0  0  0
   42.5312    6.4989   11.5282 O   0  0  0  0  0  0  0  0  0  0  0  0
   46.1090    5.6934   11.9257 C   0  0  0  0  0  0  0  0  0  0  0  0
   44.3221    4.0479   11.1068 C   0  0  0  0  0  0  0  0  0  0  0  0
   46.4103    6.7981   12.9447 C   0  0  0  0  0  0  0  0  0  0  0  0
   44.8789    3.9674    9.6815 C   0  0  0  0  0  0  0  0  0  0  0  0
   44.5077    2.6493    9.0177 C   0  0  0  0  0  0  0  0  0  0  0  0
   47.9024    7.0793   13.0329 C   0  0  0  0  0  0  0  0  0  0  0  0
   43.9107    5.8127   10.8460 H   0  0  0  0  0  0  0  0  0  0  0  0
   45.5144    3.2525   10.9011 H   0  0  0  0  0  0  0  0  0  0  0  0
   43.7792    3.0374   10.7778 H   0  0  0  0  0  0  0  0  0  0  0  0
   46.4295    5.6748   11.2674 H   0  0  0  0  0  0  0  0  0  0  0  0
   46.1047    4.8202   12.7640 H   0  0  0  0  0  0  0  0  0  0  0  0
   45.0843    7.6292   12.0766 H   0  0  0  0  0  0  0  0  0  0  0  0
   44.7883    6.7901   13.6010 H   0  0  0  0  0  0  0  0  0  0  0  0
   44.6923    3.0646    8.5760 H   0  0  0  0  0  0  0  0  0  0  0  0
   43.6753    4.4846    8.7797 H   0  0  0  0  0  0  0  0  0  0  0  0
   45.6800    5.9242    9.0236 H   0  0  0  0  0  0  0  0  0  0  0  0
   45.7973    4.9627    7.5485 H   0  0  0  0  0  0  0  0  0  0  0  0
   46.7362    4.4944    8.9752 H   0  0  0  0  0  0  0  0  0  0  0  0
   47.5453    7.5666   12.5179 H   0  0  0  0  0  0  0  0  0  0  0  0
   47.2471    6.7144   14.0458 H   0  0  0  0  0  0  0  0  0  0  0  0
   46.6654    8.3739   13.8269 H   0  0  0  0  0  0  0  0  0  0  0  0
   44.2253    5.2800   12.8626 H   0  0  0  0  0  0  0  0  0  0  0  0
   42.1552    7.2585   11.0359 H   0  0  0  0  0  0  0  0  0  0  0  0
   46.6536    4.7875   12.2205 H   0  0  0  0  0  0  0  0  0  0  0  0
   46.4974    5.9972   10.9459 H   0  0  0  0  0  0  0  0  0  0  0  0
   43.2376    3.8807   11.0741 H   0  0  0  0  0  0  0  0  0  0  0  0
   44.7435    3.2253   11.6990 H   0  0  0  0  0  0  0  0  0  0  0  0
   46.0433    6.5009   13.9340 H   0  0  0  0  0  0  0  0  0  0  0  0
   45.8907    7.7227   12.6704 H   0  0  0  0  0  0  0  0  0  0  0  0
   44.4895    4.7909    9.0733 H   0  0  0  0  0  0  0  0  0  0  0  0
   45.9704    4.0563    9.6932 H   0  0  0  0  0  0  0  0  0  0  0  0
   43.4210    2.5362    8.9503 H   0  0  0  0  0  0  0  0  0  0  0  0
   44.9170    2.6078    8.0034 H   0  0  0  0  0  0  0  0  0  0  0  0
   44.9080    1.8001    9.5807 H   0  0  0  0  0  0  0  0  0  0  0  0
   48.4528    6.1847   13.3416 H   0  0  0  0  0  0  0  0  0  0  0  0
   48.0966    7.8675   13.7670 H   0  0  0  0  0  0  0  0  0  0  0  0
   48.2968    7.4096   12.0667 H   0  0  0  0  0  0  0  0  0  0  0  0
  3  2  1  0
  4  2  2  0
  5  2  1  0
  6  5  1  0
  7  5  1  0
  8  7  1  0
  9  6  1  0
 10  9  1  0
 11  8  1  0
 13 12  2  0
 14 12  1  0
 15 12  1  0
 16 14  1  0
 17 14  1  0
 18 16  1  0
 19 17  1  0
 20 19  1  0
 21 18  1  0
  5 22  1  0
  6 23  1  0
  6 24  1  0
  7 25  1  0
  7 26  1  0
  8 27  1  0
  8 28  1  0
  9 29  1  0
  9 30  1  0
 10 31  1  0
 10 32  1  0
 10 33  1  0
 11 34  1  0
 11 35  1  0
 11 36  1  0
 14 37  1  0
 15 38  1  0
 16 39  1  0
 16 40  1  0
 17 41  1  0
 17 42  1  0
 18 43  1  0
 18 44  1  0
 19 45  1  0
 19 46  1  0
 20 47  1  0
 20 48  1  0
 20 49  1  0
 21 50  1  0
 21 51  1  0
 21 52  1  0
M  CHG  2   1   1   3  -1
M  END
> <Uni-Dock RESULT> 
ENERGY=   -5.456  LOWER_BOUND=    1.033  UPPER_BOUND=    3.938
INTER + INTRA:          -5.456
INTER:                  -5.456
INTRA:                   0.000
UNBOUND:                 0.000

$$$$

     RDKit          3D

 52 49  0  0  0  0  0  0  0  0999 V2000
   49.0339    4.1885   18.6773 Na  0  0  0  0  0 15  0  0  0  0  0  0
   47.3566    3.5305   17.1063 C   0  0  0  0  0  0  0  0  0  0  0  0
   46.6271    2.6968   17.7138 O   0  0  0  0  0  0  0  0  0  0  0  0
   47.1773    4.0867   15.9850 O   0  0  0  0  0  0  0  0  0  0  0  0
   48.6644    3.9356   17.8194 C   0  0  0  0  0  0  0  0  0  0  0  0
   49.5900    2.7048   17.7706 C   0  0  0  0  0  0  0  0  0  0  0  0
   48.3755    4.3857   19.2601 C   0  0  0  0  0  0  0  0  0  0  0  0
   47.5891    5.6995   19.3111 C   0  0  0  0  0  0  0  0  0  0  0  0
   51.0529    3.0418   17.4546 C   0  0  0  0  0  0  0  0  0  0  0  0
   51.7379    3.8976   18.5070 C   0  0  0  0  0  0  0  0  0  0  0  0
   47.3547    6.1509   20.7444 C   0  0  0  0  0  0  0  0  0  0  0  0
   48.7498    5.4386   17.2971 C   0  0  0  0  0  0  0  0  0  0  0  0
   49.5711    6.2983   17.5669 O   0  0  0  0  0  0  0  0  0  0  0  0
   48.3398    4.2578   18.1540 C   0  0  0  0  0  0  0  0  0  0  0  0
   48.0988    5.4659   16.1169 O   0  0  0  0  0  0  0  0  0  0  0  0
   48.6027    4.5215   19.6470 C   0  0  0  0  0  0  0  0  0  0  0  0
   49.0287    2.9777   17.6454 C   0  0  0  0  0  0  0  0  0  0  0  0
   47.6457    5.5666   20.2312 C   0  0  0  0  0  0  0  0  0  0  0  0
   50.5480    2.9448   17.8419 C   0  0  0  0  0  0  0  0  0  0  0  0
   51.1516    1.6724   17.2652 C   0  0  0  0  0  0  0  0  0  0  0  0
   47.9082    5.7925   21.7122 C   0  0  0  0  0  0  0  0  0  0  0  0
   49.1175    4.7657   17.2621 H   0  0  0  0  0  0  0  0  0  0  0  0
   49.5442    2.1526   18.7178 H   0  0  0  0  0  0  0  0  0  0  0  0
   49.2549    2.0027   16.9956 H   0  0  0  0  0  0  0  0  0  0  0  0
   49.3189    4.5227   19.8001 H   0  0  0  0  0  0  0  0  0  0  0  0
   47.8208    3.6108   19.8043 H   0  0  0  0  0  0  0  0  0  0  0  0
   48.1383    6.4819   18.7746 H   0  0  0  0  0  0  0  0  0  0  0  0
   46.6196    5.5833   18.8140 H   0  0  0  0  0  0  0  0  0  0  0  0
   51.6090    2.1014   17.3572 H   0  0  0  0  0  0  0  0  0  0  0  0
   51.1145    3.5442   16.4820 H   0  0  0  0  0  0  0  0  0  0  0  0
   51.3061    4.9017   18.5487 H   0  0  0  0  0  0  0  0  0  0  0  0
   52.8007    4.0066   18.2680 H   0  0  0  0  0  0  0  0  0  0  0  0
   51.6598    3.4407   19.4985 H   0  0  0  0  0  0  0  0  0  0  0  0
   48.3039    6.3151   21.2645 H   0  0  0  0  0  0  0  0  0  0  0  0
   46.7817    5.4033   21.3021 H   0  0  0  0  0  0  0  0  0  0  0  0
   46.7927    7.0900   20.7589 H   0  0  0  0  0  0  0  0  0  0  0  0
   47.2566    4.1292   18.0249 H   0  0  0  0  0  0  0  0  0  0  0  0
   48.4578    6.2600   15.6683 H   0  0  0  0  0  0  0  0  0  0  0  0
   48.4811    3.5848   20.2057 H   0  0  0  0  0  0  0  0  0  0  0  0
   49.6352    4.8573   19.8035 H   0  0  0  0  0  0  0  0  0  0  0  0
   48.8061    2.8493   16.5781 H   0  0  0  0  0  0  0  0  0  0  0  0
   48.5860    2.1145   18.1591 H   0  0  0  0  0  0  0  0  0  0  0  0
   46.6088    5.2363   20.0981 H   0  0  0  0  0  0  0  0  0  0  0  0
   47.7526    6.5201   19.7026 H   0  0  0  0  0  0  0  0  0  0  0  0
   51.0139    3.8086   17.3555 H   0  0  0  0  0  0  0  0  0  0  0  0
   50.7956    2.9959   18.9075 H   0  0  0  0  0  0  0  0  0  0  0  0
   50.9601    1.5996   16.1898 H   0  0  0  0  0  0  0  0  0  0  0  0
   52.2353    1.6644   17.4184 H   0  0  0  0  0  0  0  0  0  0  0  0
   50.7332    0.7848   17.7503 H   0  0  0  0  0  0  0  0  0  0  0  0
   47.7741    4.8663   22.2803 H   0  0  0  0  0  0  0  0  0  0  0  0
   47.2135    6.5385   22.1106 H   0  0  0  0  0  0  0  0  0  0  0  0
   48.9278    6.1538   21.8789 H   0  0  0  0  0  0  0  0  0  0  0  0
  3  2  1  0
  4  2  2  0
  5  2  1  0
  6  5  1  0
  7  5  1  0
  8  7  1  0
  9  6  1  0
 10  9  1  0
 11  8  1  0
 13 12  2  0
 14 12  1  0
 15 12  1  0
 16 14  1  0
 17 14  1  0
 18 16  1  0
 19 17  1  0
 20 19  1  0
 21 18  1  0
  5 22  1  0
  6 23  1  0
  6 24  1  0
  7 25  1  0
  7 26  1  0
  8 27  1  0
  8 28  1  0
  9 29  1  0
  9 30  1  0
 10 31  1  0
 10 32  1  0
 10 33  1  0
 11 34  1  0
 11 35  1  0
 11 36  1  0
 14 37  1  0
 15 38  1  0
 16 39  1  0
 16 40  1  0
 17 41  1  0
 17 42  1  0
 18 43  1  0
 18 44  1  0
 19 45  1  0
 19 46  1  0
 20 47  1  0
 20 48  1  0
 20 49  1  0
 21 50  1  0
 21 51  1  0
 21 52  1  0
M  CHG  2   1   1   3  -1
M  END
> <Uni-Dock RESULT> 
ENERGY=   -5.389  LOWER_BOUND=    7.088  UPPER_BOUND=    8.908
INTER + INTRA:          -5.389
INTER:                  -5.389
INTRA:                   0.000
UNBOUND:                 0.000

$$$$

     RDKit          3D

 52 49  0  0  0  0  0  0  0  0999 V2000
   45.1884    4.7308   11.1419 Na  0  0  0  0  0 15  0  0  0  0  0  0
   43.7347    6.6179   11.3422 C   0  0  0  0  0  0  0  0  0  0  0  0
   44.2807    7.5426   10.6767 O   0  0  0  0  0  0  0  0  0  0  0  0
   42.5805    6.5730   11.8567 O   0  0  0  0  0  0  0  0  0  0  0  0
   44.5891    5.3538   11.5768 C   0  0  0  0  0  0  0  0  0  0  0  0
   45.7027    5.7539   12.5636 C   0  0  0  0  0  0  0  0  0  0  0  0
   45.1546    4.8311   10.2470 C   0  0  0  0  0  0  0  0  0  0  0  0
   44.0596    4.2838    9.3257 C   0  0  0  0  0  0  0  0  0  0  0  0
   45.9826    4.7001   13.6428 C   0  0  0  0  0  0  0  0  0  0  0  0
   46.5106    3.3806   13.1050 C   0  0  0  0  0  0  0  0  0  0  0  0
   44.6449    3.7294    8.0361 C   0  0  0  0  0  0  0  0  0  0  0  0
   43.4107    4.2811   11.5730 C   0  0  0  0  0  0  0  0  0  0  0  0
   43.4781    3.0681   11.6737 O   0  0  0  0  0  0  0  0  0  0  0  0
   44.4738    5.2197   11.0385 C   0  0  0  0  0  0  0  0  0  0  0  0
   42.3022    4.9365   11.9720 O   0  0  0  0  0  0  0  0  0  0  0  0
   45.4407    4.4974   10.0840 C   0  0  0  0  0  0  0  0  0  0  0  0
   45.1982    5.9109   12.2087 C   0  0  0  0  0  0  0  0  0  0  0  0
   44.7770    4.1274    8.7527 C   0  0  0  0  0  0  0  0  0  0  0  0
   46.0605    4.9813   13.0690 C   0  0  0  0  0  0  0  0  0  0  0  0
   46.6950    5.7340   14.2294 C   0  0  0  0  0  0  0  0  0  0  0  0
   45.7576    3.4372    7.8172 C   0  0  0  0  0  0  0  0  0  0  0  0
   43.9491    4.5846   12.0282 H   0  0  0  0  0  0  0  0  0  0  0  0
   46.6329    5.9725   12.0240 H   0  0  0  0  0  0  0  0  0  0  0  0
   45.4349    6.6795   13.0903 H   0  0  0  0  0  0  0  0  0  0  0  0
   45.8778    4.0316   10.4423 H   0  0  0  0  0  0  0  0  0  0  0  0
   45.7062    5.6219    9.7230 H   0  0  0  0  0  0  0  0  0  0  0  0
   43.5061    3.4887    9.8387 H   0  0  0  0  0  0  0  0  0  0  0  0
   43.3407    5.0725    9.0774 H   0  0  0  0  0  0  0  0  0  0  0  0
   46.7225    5.1107   14.3406 H   0  0  0  0  0  0  0  0  0  0  0  0
   45.0716    4.5164   14.2247 H   0  0  0  0  0  0  0  0  0  0  0  0
   45.7547    2.8606   12.5092 H   0  0  0  0  0  0  0  0  0  0  0  0
   46.7861    2.7210   13.9343 H   0  0  0  0  0  0  0  0  0  0  0  0
   47.4001    3.5348   12.4861 H   0  0  0  0  0  0  0  0  0  0  0  0
   45.3418    2.9105    8.2415 H   0  0  0  0  0  0  0  0  0  0  0  0
   45.1812    4.5070    7.4830 H   0  0  0  0  0  0  0  0  0  0  0  0
   43.8476    3.3435    7.3932 H   0  0  0  0  0  0  0  0  0  0  0  0
   43.9543    5.9960   10.4606 H   0  0  0  0  0  0  0  0  0  0  0  0
   41.7114    4.2245   12.2959 H   0  0  0  0  0  0  0  0  0  0  0  0
   46.2986    5.1498    9.8778 H   0  0  0  0  0  0  0  0  0  0  0  0
   45.8346    3.5863   10.5508 H   0  0  0  0  0  0  0  0  0  0  0  0
   44.4559    6.4021   12.8514 H   0  0  0  0  0  0  0  0  0  0  0  0
   45.8331    6.7098   11.8042 H   0  0  0  0  0  0  0  0  0  0  0  0
   44.3934    5.0312    8.2651 H   0  0  0  0  0  0  0  0  0  0  0  0
   43.9225    3.4635    8.9235 H   0  0  0  0  0  0  0  0  0  0  0  0
   45.4543    4.1614   13.4693 H   0  0  0  0  0  0  0  0  0  0  0  0
   46.8580    4.5347   12.4657 H   0  0  0  0  0  0  0  0  0  0  0  0
   45.9298    6.1660   14.8822 H   0  0  0  0  0  0  0  0  0  0  0  0
   47.3098    5.0559   14.8295 H   0  0  0  0  0  0  0  0  0  0  0  0
   47.3363    6.5441   13.8677 H   0  0  0  0  0  0  0  0  0  0  0  0
   46.6099    4.0867    7.5933 H   0  0  0  0  0  0  0  0  0  0  0  0
   45.2661    3.1844    6.8725 H   0  0  0  0  0  0  0  0  0  0  0  0
   46.1377    2.5116    8.2611 H   0  0  0  0  0  0  0  0  0  0  0  0
  3  2  1  0
  4  2  2  0
  5  2  1  0
  6  5  1  0
  7  5  1  0
  8  7  1  0
  9  6  1  0
 10  9  1  0
 11  8  1  0
 13 12  2  0
 14 12  1  0
 15 12  1  0
 16 14  1  0
 17 14  1  0
 18 16  1  0
 19 17  1  0
 20 19  1  0
 21 18  1  0
  5 22  1  0
  6 23  1  0
  6 24  1  0
  7 25  1  0
  7 26  1  0
  8 27  1  0
  8 28  1  0
  9 29  1  0
  9 30  1  0
 10 31  1  0
 10 32  1  0
 10 33  1  0
 11 34  1  0
 11 35  1  0
 11 36  1  0
 14 37  1  0
 15 38  1  0
 16 39  1  0
 16 40  1  0
 17 41  1  0
 17 42  1  0
 18 43  1  0
 18 44  1  0
 19 45  1  0
 19 46  1  0
 20 47  1  0
 20 48  1  0
 20 49  1  0
 21 50  1  0
 21 51  1  0
 21 52  1  0
M  CHG  2   1   1   3  -1
M  END
> <Uni-Dock RESULT> 
ENERGY=   -5.248  LOWER_BOUND=    1.427  UPPER_BOUND=    1.943
INTER + INTRA:          -5.248
INTER:                  -5.248
INTRA:                   0.000
UNBOUND:                 0.000

$$$$

     RDKit          3D

 52 49  0  0  0  0  0  0  0  0999 V2000
   45.4355    6.5383   12.5122 Na  0  0  0  0  0 15  0  0  0  0  0  0
   43.5949    5.0270   12.3058 C   0  0  0  0  0  0  0  0  0  0  0  0
   42.7572    5.3867   13.1804 O   0  0  0  0  0  0  0  0  0  0  0  0
   43.4657    4.1903   11.3666 O   0  0  0  0  0  0  0  0  0  0  0  0
   44.9864    5.6907   12.3841 C   0  0  0  0  0  0  0  0  0  0  0  0
   45.6727    5.1240   13.6418 C   0  0  0  0  0  0  0  0  0  0  0  0
   44.8515    7.2205   12.4381 C   0  0  0  0  0  0  0  0  0  0  0  0
   44.3171    7.8029   11.1256 C   0  0  0  0  0  0  0  0  0  0  0  0
   47.1558    4.7873   13.4401 C   0  0  0  0  0  0  0  0  0  0  0  0
   48.0322    5.9891   13.1292 C   0  0  0  0  0  0  0  0  0  0  0  0
   44.2355    9.3204   11.1841 C   0  0  0  0  0  0  0  0  0  0  0  0
   45.3156    5.7090   10.8250 C   0  0  0  0  0  0  0  0  0  0  0  0
   46.2897    6.1671   10.2527 O   0  0  0  0  0  0  0  0  0  0  0  0
   44.7412    6.1483   12.1569 C   0  0  0  0  0  0  0  0  0  0  0  0
   44.6250    4.6869   10.2812 O   0  0  0  0  0  0  0  0  0  0  0  0
   45.1174    7.6038   12.4850 C   0  0  0  0  0  0  0  0  0  0  0  0
   45.1642    5.1610   13.2606 C   0  0  0  0  0  0  0  0  0  0  0  0
   44.3923    8.6100   11.5842 C   0  0  0  0  0  0  0  0  0  0  0  0
   46.6605    5.1698   13.5909 C   0  0  0  0  0  0  0  0  0  0  0  0
   46.9979    4.1307   14.6503 C   0  0  0  0  0  0  0  0  0  0  0  0
   44.7608   10.0414   11.9429 C   0  0  0  0  0  0  0  0  0  0  0  0
   45.5544    5.4063   11.4888 H   0  0  0  0  0  0  0  0  0  0  0  0
   45.5733    5.8238   14.4812 H   0  0  0  0  0  0  0  0  0  0  0  0
   45.1807    4.1962   13.9627 H   0  0  0  0  0  0  0  0  0  0  0  0
   45.8286    7.6701   12.6468 H   0  0  0  0  0  0  0  0  0  0  0  0
   44.1931    7.5226   13.2623 H   0  0  0  0  0  0  0  0  0  0  0  0
   44.9719    7.5111   10.2963 H   0  0  0  0  0  0  0  0  0  0  0  0
   43.3201    7.4033   10.9091 H   0  0  0  0  0  0  0  0  0  0  0  0
   47.5287    4.3144   14.3568 H   0  0  0  0  0  0  0  0  0  0  0  0
   47.2604    4.0450   12.6399 H   0  0  0  0  0  0  0  0  0  0  0  0
   47.7901    6.4184   12.1526 H   0  0  0  0  0  0  0  0  0  0  0  0
   49.0848    5.6891   13.1044 H   0  0  0  0  0  0  0  0  0  0  0  0
   47.9203    6.7663   13.8916 H   0  0  0  0  0  0  0  0  0  0  0  0
   45.2223    9.7601   11.3614 H   0  0  0  0  0  0  0  0  0  0  0  0
   43.5646    9.6463   11.9852 H   0  0  0  0  0  0  0  0  0  0  0  0
   43.8527    9.7160   10.2381 H   0  0  0  0  0  0  0  0  0  0  0  0
   43.6476    6.1002   12.0655 H   0  0  0  0  0  0  0  0  0  0  0  0
   45.0992    4.5016    9.4436 H   0  0  0  0  0  0  0  0  0  0  0  0
   44.8562    7.8174   13.5292 H   0  0  0  0  0  0  0  0  0  0  0  0
   46.1996    7.7539   12.3873 H   0  0  0  0  0  0  0  0  0  0  0  0
   44.8720    4.1448   12.9654 H   0  0  0  0  0  0  0  0  0  0  0  0
   44.5985    5.3923   14.1724 H   0  0  0  0  0  0  0  0  0  0  0  0
   43.3079    8.4841   11.6845 H   0  0  0  0  0  0  0  0  0  0  0  0
   44.6436    8.4318   10.5330 H   0  0  0  0  0  0  0  0  0  0  0  0
   47.2504    4.9617   12.6918 H   0  0  0  0  0  0  0  0  0  0  0  0
   46.9633    6.1553   13.9606 H   0  0  0  0  0  0  0  0  0  0  0  0
   46.7458    3.1228   14.3057 H   0  0  0  0  0  0  0  0  0  0  0  0
   48.0685    4.1545   14.8764 H   0  0  0  0  0  0  0  0  0  0  0  0
   46.4503    4.3244   15.5782 H   0  0  0  0  0  0  0  0  0  0  0  0
   44.4896   10.2687   12.9789 H   0  0  0  0  0  0  0  0  0  0  0  0
   44.2310   10.7435   11.2915 H   0  0  0  0  0  0  0  0  0  0  0  0
   45.8355   10.2112   11.8233 H   0  0  0  0  0  0  0  0  0  0  0  0
  3  2  1  0
  4  2  2  0
  5  2  1  0
  6  5  1  0
  7  5  1  0
  8  7  1  0
  9  6  1  0
 10  9  1  0
 11  8  1  0
 13 12  2  0
 14 12  1  0
 15 12  1  0
 16 14  1  0
 17 14  1  0
 18 16  1  0
 19 17  1  0
 20 19  1  0
 21 18  1  0
  5 22  1  0
  6 23  1  0
  6 24  1  0
  7 25  1  0
  7 26  1  0
  8 27  1  0
  8 28  1  0
  9 29  1  0
  9 30  1  0
 10 31  1  0
 10 32  1  0
 10 33  1  0
 11 34  1  0
 11 35  1  0
 11 36  1  0
 14 37  1  0
 15 38  1  0
 16 39  1  0
 16 40  1  0
 17 41  1  0
 17 42  1  0
 18 43  1  0
 18 44  1  0
 19 45  1  0
 19 46  1  0
 20 47  1  0
 20 48  1  0
 20 49  1  0
 21 50  1  0
 21 51  1  0
 21 52  1  0
M  CHG  2   1   1   3  -1
M  END
> <Uni-Dock RESULT> 
ENERGY=   -4.894  LOWER_BOUND=    1.844  UPPER_BOUND=    3.542
INTER + INTRA:          -4.894
INTER:                  -4.894
INTRA:                   0.000
UNBOUND:                 0.000

$$$$

     RDKit          3D

 52 49  0  0  0  0  0  0  0  0999 V2000
   42.5695   11.0724    9.5154 Na  0  0  0  0  0 15  0  0  0  0  0  0
   43.9188    9.9917   11.1664 C   0  0  0  0  0  0  0  0  0  0  0  0
   44.0972    8.8140   10.7451 O   0  0  0  0  0  0  0  0  0  0  0  0
   44.4682   10.5893   12.1359 O   0  0  0  0  0  0  0  0  0  0  0  0
   42.8771   10.8363   10.4020 C   0  0  0  0  0  0  0  0  0  0  0  0
   41.4972   10.2360   10.7333 C   0  0  0  0  0  0  0  0  0  0  0  0
   43.1696   10.8169    8.8936 C   0  0  0  0  0  0  0  0  0  0  0  0
   44.4659   11.5550    8.5441 C   0  0  0  0  0  0  0  0  0  0  0  0
   40.4096   11.2870   10.9901 C   0  0  0  0  0  0  0  0  0  0  0  0
   40.0839   12.1555    9.7865 C   0  0  0  0  0  0  0  0  0  0  0  0
   44.7123   11.5643    7.0434 C   0  0  0  0  0  0  0  0  0  0  0  0
   43.5653   12.2620   10.5839 C   0  0  0  0  0  0  0  0  0  0  0  0
   43.2146   13.3440   10.1450 O   0  0  0  0  0  0  0  0  0  0  0  0
   43.2722   10.8945   10.0001 C   0  0  0  0  0  0  0  0  0  0  0  0
   44.2884   12.1902   11.7194 O   0  0  0  0  0  0  0  0  0  0  0  0
   42.9881   10.9711    8.4898 C   0  0  0  0  0  0  0  0  0  0  0  0
   42.1314   10.2229   10.7870 C   0  0  0  0  0  0  0  0  0  0  0  0
   44.2454   11.2984    7.6764 C   0  0  0  0  0  0  0  0  0  0  0  0
   40.7611   10.8894   10.6258 C   0  0  0  0  0  0  0  0  0  0  0  0
   39.7066   10.1960   11.4762 C   0  0  0  0  0  0  0  0  0  0  0  0
   43.9453   11.3446    6.1861 C   0  0  0  0  0  0  0  0  0  0  0  0
   42.9332   11.8687   10.7710 H   0  0  0  0  0  0  0  0  0  0  0  0
   41.1676    9.5658    9.9293 H   0  0  0  0  0  0  0  0  0  0  0  0
   41.5551    9.6162   11.6379 H   0  0  0  0  0  0  0  0  0  0  0  0
   42.3427   11.2885    8.3511 H   0  0  0  0  0  0  0  0  0  0  0  0
   43.2298    9.7855    8.5238 H   0  0  0  0  0  0  0  0  0  0  0  0
   44.4131   12.5888    8.9047 H   0  0  0  0  0  0  0  0  0  0  0  0
   45.3203   11.0808    9.0398 H   0  0  0  0  0  0  0  0  0  0  0  0
   39.4949   10.7667   11.2995 H   0  0  0  0  0  0  0  0  0  0  0  0
   40.7053   11.9268   11.8300 H   0  0  0  0  0  0  0  0  0  0  0  0
   40.9260   12.8006    9.5195 H   0  0  0  0  0  0  0  0  0  0  0  0
   39.2315   12.8045   10.0121 H   0  0  0  0  0  0  0  0  0  0  0  0
   39.8218   11.5433    8.9180 H   0  0  0  0  0  0  0  0  0  0  0  0
   43.8953   12.0656    6.5145 H   0  0  0  0  0  0  0  0  0  0  0  0
   44.7996   10.5449    6.6542 H   0  0  0  0  0  0  0  0  0  0  0  0
   45.6413   12.0960    6.8151 H   0  0  0  0  0  0  0  0  0  0  0  0
   44.1770   10.2870   10.1377 H   0  0  0  0  0  0  0  0  0  0  0  0
   44.3974   13.1263   11.9888 H   0  0  0  0  0  0  0  0  0  0  0  0
   42.5914   10.0068    8.1479 H   0  0  0  0  0  0  0  0  0  0  0  0
   42.2212   11.7268    8.2794 H   0  0  0  0  0  0  0  0  0  0  0  0
   42.3930   10.2029   11.8531 H   0  0  0  0  0  0  0  0  0  0  0  0
   42.0558    9.1753   10.4680 H   0  0  0  0  0  0  0  0  0  0  0  0
   45.0158   10.5411    7.8627 H   0  0  0  0  0  0  0  0  0  0  0  0
   44.6591   12.2646    7.9850 H   0  0  0  0  0  0  0  0  0  0  0  0
   40.8133   11.9436   10.9184 H   0  0  0  0  0  0  0  0  0  0  0  0
   40.4417   10.8555    9.5787 H   0  0  0  0  0  0  0  0  0  0  0  0
   39.9678   10.2401   12.5383 H   0  0  0  0  0  0  0  0  0  0  0  0
   38.7348   10.6822   11.3450 H   0  0  0  0  0  0  0  0  0  0  0  0
   39.6018    9.1444   11.1908 H   0  0  0  0  0  0  0  0  0  0  0  0
   43.5634   10.3815    5.8325 H   0  0  0  0  0  0  0  0  0  0  0  0
   44.8551   11.5762    5.6234 H   0  0  0  0  0  0  0  0  0  0  0  0
   43.2004   12.1141    5.9599 H   0  0  0  0  0  0  0  0  0  0  0  0
  3  2  1  0
  4  2  2  0
  5  2  1  0
  6  5  1  0
  7  5  1  0
  8  7  1  0
  9  6  1  0
 10  9  1  0
 11  8  1  0
 13 12  2  0
 14 12  1  0
 15 12  1  0
 16 14  1  0
 17 14  1  0
 18 16  1  0
 19 17  1  0
 20 19  1  0
 21 18  1  0
  5 22  1  0
  6 23  1  0
  6 24  1  0
  7 25  1  0
  7 26  1  0
  8 27  1  0
  8 28  1  0
  9 29  1  0
  9 30  1  0
 10 31  1  0
 10 32  1  0
 10 33  1  0
 11 34  1  0
 11 35  1  0
 11 36  1  0
 14 37  1  0
 15 38  1  0
 16 39  1  0
 16 40  1  0
 17 41  1  0
 17 42  1  0
 18 43  1  0
 18 44  1  0
 19 45  1  0
 19 46  1  0
 20 47  1  0
 20 48  1  0
 20 49  1  0
 21 50  1  0
 21 51  1  0
 21 52  1  0
M  CHG  2   1   1   3  -1
M  END
> <Uni-Dock RESULT> 
ENERGY=   -4.839  LOWER_BOUND=    5.633  UPPER_BOUND=    7.026
INTER + INTRA:          -4.839
INTER:                  -4.839
INTRA:                   0.000
UNBOUND:                 0.000

$$$$

     RDKit          3D

 52 49  0  0  0  0  0  0  0  0999 V2000
   49.0926    4.1997   18.3158 Na  0  0  0  0  0 15  0  0  0  0  0  0
   48.0401    4.9950   16.3223 C   0  0  0  0  0  0  0  0  0  0  0  0
   48.9300    5.6406   15.6998 O   0  0  0  0  0  0  0  0  0  0  0  0
   46.8885    4.6412   15.9383 O   0  0  0  0  0  0  0  0  0  0  0  0
   48.3902    4.5745   17.7657 C   0  0  0  0  0  0  0  0  0  0  0  0
   48.4040    5.8650   18.6075 C   0  0  0  0  0  0  0  0  0  0  0  0
   49.7425    3.8456   17.8017 C   0  0  0  0  0  0  0  0  0  0  0  0
   49.6874    2.4848   17.1000 C   0  0  0  0  0  0  0  0  0  0  0  0
   47.7484    5.7126   19.9861 C   0  0  0  0  0  0  0  0  0  0  0  0
   48.4577    4.7373   20.9106 C   0  0  0  0  0  0  0  0  0  0  0  0
   51.0218    1.7604   17.1877 C   0  0  0  0  0  0  0  0  0  0  0  0
   47.5766    3.2049   17.8053 C   0  0  0  0  0  0  0  0  0  0  0  0
   47.5065    2.3806   18.7007 O   0  0  0  0  0  0  0  0  0  0  0  0
   48.7118    4.1709   17.5318 C   0  0  0  0  0  0  0  0  0  0  0  0
   46.5644    3.3415   16.9253 O   0  0  0  0  0  0  0  0  0  0  0  0
   50.0433    3.6602   18.1098 C   0  0  0  0  0  0  0  0  0  0  0  0
   48.3398    5.5746   18.0447 C   0  0  0  0  0  0  0  0  0  0  0  0
   50.5865    2.4507   17.3405 C   0  0  0  0  0  0  0  0  0  0  0  0
   48.2382    5.6953   19.5688 C   0  0  0  0  0  0  0  0  0  0  0  0
   47.8159    7.0969   19.9846 C   0  0  0  0  0  0  0  0  0  0  0  0
   51.9139    1.9793   17.9141 C   0  0  0  0  0  0  0  0  0  0  0  0
   47.6032    3.9007   18.1285 H   0  0  0  0  0  0  0  0  0  0  0  0
   49.4315    6.2283   18.7356 H   0  0  0  0  0  0  0  0  0  0  0  0
   47.8627    6.6675   18.0891 H   0  0  0  0  0  0  0  0  0  0  0  0
   50.0502    3.6896   18.8416 H   0  0  0  0  0  0  0  0  0  0  0  0
   50.5260    4.4594   17.3393 H   0  0  0  0  0  0  0  0  0  0  0  0
   48.9109    1.8618   17.5589 H   0  0  0  0  0  0  0  0  0  0  0  0
   49.4220    2.6105   16.0444 H   0  0  0  0  0  0  0  0  0  0  0  0
   47.7307    6.6973   20.4690 H   0  0  0  0  0  0  0  0  0  0  0  0
   46.7031    5.4040   19.8659 H   0  0  0  0  0  0  0  0  0  0  0  0
   48.3850    3.7106   20.5402 H   0  0  0  0  0  0  0  0  0  0  0  0
   47.9989    4.7614   21.9043 H   0  0  0  0  0  0  0  0  0  0  0  0
   49.5154    4.9966   21.0204 H   0  0  0  0  0  0  0  0  0  0  0  0
   51.3038    1.5818   18.2303 H   0  0  0  0  0  0  0  0  0  0  0  0
   51.8163    2.3435   16.7114 H   0  0  0  0  0  0  0  0  0  0  0  0
   50.9611    0.7918   16.6818 H   0  0  0  0  0  0  0  0  0  0  0  0
   48.8247    4.2318   16.4409 H   0  0  0  0  0  0  0  0  0  0  0  0
   45.9073    2.6753   17.2171 H   0  0  0  0  0  0  0  0  0  0  0  0
   50.7877    4.4652   18.0668 H   0  0  0  0  0  0  0  0  0  0  0  0
   49.9259    3.3871   19.1657 H   0  0  0  0  0  0  0  0  0  0  0  0
   47.3830    5.8781   17.6001 H   0  0  0  0  0  0  0  0  0  0  0  0
   49.0894    6.2897   17.6817 H   0  0  0  0  0  0  0  0  0  0  0  0
   50.7261    2.7138   16.2855 H   0  0  0  0  0  0  0  0  0  0  0  0
   49.8705    1.6224   17.3762 H   0  0  0  0  0  0  0  0  0  0  0  0
   47.5102    4.9765   19.9602 H   0  0  0  0  0  0  0  0  0  0  0  0
   49.2037    5.4699   20.0341 H   0  0  0  0  0  0  0  0  0  0  0  0
   46.8343    7.3499   19.5711 H   0  0  0  0  0  0  0  0  0  0  0  0
   47.7529    7.1654   21.0751 H   0  0  0  0  0  0  0  0  0  0  0  0
   48.5381    7.8432   19.6383 H   0  0  0  0  0  0  0  0  0  0  0  0
   52.6678    2.7713   17.8613 H   0  0  0  0  0  0  0  0  0  0  0  0
   52.2860    1.1184   17.3499 H   0  0  0  0  0  0  0  0  0  0  0  0
   51.8039    1.6782   18.9607 H   0  0  0  0  0  0  0  0  0  0  0  0
  3  2  1  0
  4  2  2  0
  5  2  1  0
  6  5  1  0
  7  5  1  0
  8  7  1  0
  9  6  1  0
 10  9  1  0
 11  8  1  0
 13 12  2  0
 14 12  1  0
 15 12  1  0
 16 14  1  0
 17 14  1  0
 18 16  1  0
 19 17  1  0
 20 19  1  0
 21 18  1  0
  5 22  1  0
  6 23  1  0
  6 24  1  0
  7 25  1  0
  7 26  1  0
  8 27  1  0
  8 28  1  0
  9 29  1  0
  9 30  1  0
 10 31  1  0
 10 32  1  0
 10 33  1  0
 11 34  1  0
 11 35  1  0
 11 36  1  0
 14 37  1  0
 15 38  1  0
 16 39  1  0
 16 40  1  0
 17 41  1  0
 17 42  1  0
 18 43  1  0
 18 44  1  0
 19 45  1  0
 19 46  1  0
 20 47  1  0
 20 48  1  0
 20 49  1  0
 21 50  1  0
 21 51  1  0
 21 52  1  0
M  CHG  2   1   1   3  -1
M  END
> <Uni-Dock RESULT> 
ENERGY=   -4.720  LOWER_BOUND=    6.814  UPPER_BOUND=    8.105
INTER + INTRA:          -4.720
INTER:                  -4.720
INTRA:                   0.000
UNBOUND:                 0.000

$$$$

     RDKit          3D

 52 49  0  0  0  0  0  0  0  0999 V2000
   39.7288   11.4632   11.9962 Na  0  0  0  0  0 15  0  0  0  0  0  0
   38.2806    9.9640   10.8260 C   0  0  0  0  0  0  0  0  0  0  0  0
   38.0410    9.0209   11.6319 O   0  0  0  0  0  0  0  0  0  0  0  0
   37.7468   10.2203    9.7088 O   0  0  0  0  0  0  0  0  0  0  0  0
   39.3880   10.9533   11.2477 C   0  0  0  0  0  0  0  0  0  0  0  0
   40.7215   10.1879   11.1472 C   0  0  0  0  0  0  0  0  0  0  0  0
   39.1284   11.4795   12.6679 C   0  0  0  0  0  0  0  0  0  0  0  0
   37.8869   12.3747   12.7374 C   0  0  0  0  0  0  0  0  0  0  0  0
   41.8645   11.0115   10.5398 C   0  0  0  0  0  0  0  0  0  0  0  0
   42.2686   12.2221   11.3645 C   0  0  0  0  0  0  0  0  0  0  0  0
   37.6750   12.9220   14.1404 C   0  0  0  0  0  0  0  0  0  0  0  0
   38.7830   12.2673   10.5794 C   0  0  0  0  0  0  0  0  0  0  0  0
   39.2079   13.4095   10.6129 O   0  0  0  0  0  0  0  0  0  0  0  0
   39.0061   11.1731   11.6039 C   0  0  0  0  0  0  0  0  0  0  0  0
   38.0319   11.8509    9.5402 O   0  0  0  0  0  0  0  0  0  0  0  0
   39.3278   11.7527   12.9925 C   0  0  0  0  0  0  0  0  0  0  0  0
   40.0867   10.1977   11.1012 C   0  0  0  0  0  0  0  0  0  0  0  0
   38.1108   12.4229   13.6402 C   0  0  0  0  0  0  0  0  0  0  0  0
   41.4979   10.7891   11.0200 C   0  0  0  0  0  0  0  0  0  0  0  0
   42.4896    9.7768   10.4654 C   0  0  0  0  0  0  0  0  0  0  0  0
   38.4462   12.9661   15.0206 C   0  0  0  0  0  0  0  0  0  0  0  0
   39.3860   11.7937   10.5415 H   0  0  0  0  0  0  0  0  0  0  0  0
   41.0280    9.8202   12.1346 H   0  0  0  0  0  0  0  0  0  0  0  0
   40.6063    9.2969   10.5158 H   0  0  0  0  0  0  0  0  0  0  0  0
   39.9940   12.0564   13.0118 H   0  0  0  0  0  0  0  0  0  0  0  0
   39.0144   10.6477   13.3745 H   0  0  0  0  0  0  0  0  0  0  0  0
   37.9939   13.2124   12.0385 H   0  0  0  0  0  0  0  0  0  0  0  0
   36.9948   11.8134   12.4383 H   0  0  0  0  0  0  0  0  0  0  0  0
   42.7391   10.3584   10.4318 H   0  0  0  0  0  0  0  0  0  0  0  0
   41.5893   11.3361    9.5293 H   0  0  0  0  0  0  0  0  0  0  0  0
   41.4729   12.9724   11.3894 H   0  0  0  0  0  0  0  0  0  0  0  0
   43.1533   12.6957   10.9268 H   0  0  0  0  0  0  0  0  0  0  0  0
   42.5125   11.9353   12.3922 H   0  0  0  0  0  0  0  0  0  0  0  0
   38.5322   13.5227   14.4612 H   0  0  0  0  0  0  0  0  0  0  0  0
   37.5351   12.1100   14.8610 H   0  0  0  0  0  0  0  0  0  0  0  0
   36.7850   13.5584   14.1685 H   0  0  0  0  0  0  0  0  0  0  0  0
   38.0636   10.6151   11.6869 H   0  0  0  0  0  0  0  0  0  0  0  0
   37.9735   12.6395    8.9609 H   0  0  0  0  0  0  0  0  0  0  0  0
   39.6732   10.9446   13.6496 H   0  0  0  0  0  0  0  0  0  0  0  0
   40.1432   12.4834   12.9260 H   0  0  0  0  0  0  0  0  0  0  0  0
   39.8008    9.8243   10.1092 H   0  0  0  0  0  0  0  0  0  0  0  0
   40.1061    9.3243   11.7659 H   0  0  0  0  0  0  0  0  0  0  0  0
   37.2923   11.6992   13.7298 H   0  0  0  0  0  0  0  0  0  0  0  0
   37.7493   13.2454   13.0135 H   0  0  0  0  0  0  0  0  0  0  0  0
   41.5027   11.6764   10.3777 H   0  0  0  0  0  0  0  0  0  0  0  0
   41.8378   11.1017   12.0130 H   0  0  0  0  0  0  0  0  0  0  0  0
   42.2079    9.4647    9.4546 H   0  0  0  0  0  0  0  0  0  0  0  0
   43.4915   10.2148   10.4188 H   0  0  0  0  0  0  0  0  0  0  0  0
   42.5372    8.8861   11.1000 H   0  0  0  0  0  0  0  0  0  0  0  0
   38.7772   12.1641   15.6883 H   0  0  0  0  0  0  0  0  0  0  0  0
   37.5647   13.4371   15.4668 H   0  0  0  0  0  0  0  0  0  0  0  0
   39.2409   13.7167   14.9641 H   0  0  0  0  0  0  0  0  0  0  0  0
  3  2  1  0
  4  2  2  0
  5  2  1  0
  6  5  1  0
  7  5  1  0
  8  7  1  0
  9  6  1  0
 10  9  1  0
 11  8  1  0
 13 12  2  0
 14 12  1  0
 15 12  1  0
 16 14  1  0
 17 14  1  0
 18 16  1  0
 19 17  1  0
 20 19  1  0
 21 18  1  0
  5 22  1  0
  6 23  1  0
  6 24  1  0
  7 25  1  0
  7 26  1  0
  8 27  1  0
  8 28  1  0
  9 29  1  0
  9 30  1  0
 10 31  1  0
 10 32  1  0
 10 33  1  0
 11 34  1  0
 11 35  1  0
 11 36  1  0
 14 37  1  0
 15 38  1  0
 16 39  1  0
 16 40  1  0
 17 41  1  0
 17 42  1  0
 18 43  1  0
 18 44  1  0
 19 45  1  0
 19 46  1  0
 20 47  1  0
 20 48  1  0
 20 49  1  0
 21 50  1  0
 21 51  1  0
 21 52  1  0
M  CHG  2   1   1   3  -1
M  END
> <Uni-Dock RESULT> 
ENERGY=   -4.589  LOWER_BOUND=    6.930  UPPER_BOUND=    8.900
INTER + INTRA:          -4.589
INTER:                  -4.589
INTRA:                   0.000
UNBOUND:                 0.000

$$$$

     RDKit          3D

 52 49  0  0  0  0  0  0  0  0999 V2000
   47.9902    6.1310   19.4571 Na  0  0  0  0  0 15  0  0  0  0  0  0
   48.2873    5.4189   21.7196 C   0  0  0  0  0  0  0  0  0  0  0  0
   47.1752    4.9363   22.0753 O   0  0  0  0  0  0  0  0  0  0  0  0
   49.4044    5.3820   22.3110 O   0  0  0  0  0  0  0  0  0  0  0  0
   48.3015    6.1724   20.3724 C   0  0  0  0  0  0  0  0  0  0  0  0
   47.5158    7.4795   20.5925 C   0  0  0  0  0  0  0  0  0  0  0  0
   47.6841    5.3058   19.2637 C   0  0  0  0  0  0  0  0  0  0  0  0
   48.5488    4.0854   18.9316 C   0  0  0  0  0  0  0  0  0  0  0  0
   48.1567    8.7065   19.9313 C   0  0  0  0  0  0  0  0  0  0  0  0
   48.2172    8.6383   18.4145 C   0  0  0  0  0  0  0  0  0  0  0  0
   47.9438    3.2675   17.8010 C   0  0  0  0  0  0  0  0  0  0  0  0
   49.7858    5.8048   19.9240 C   0  0  0  0  0  0  0  0  0  0  0  0
   50.3674    6.0904   18.8913 O   0  0  0  0  0  0  0  0  0  0  0  0
   48.2909    5.6615   20.1276 C   0  0  0  0  0  0  0  0  0  0  0  0
   50.4806    5.5887   21.0589 O   0  0  0  0  0  0  0  0  0  0  0  0
   47.5677    5.3307   18.8103 C   0  0  0  0  0  0  0  0  0  0  0  0
   47.7326    6.9228   20.8125 C   0  0  0  0  0  0  0  0  0  0  0  0
   47.8660    3.9082   18.3233 C   0  0  0  0  0  0  0  0  0  0  0  0
   47.7720    8.1909   19.9532 C   0  0  0  0  0  0  0  0  0  0  0  0
   47.2525    9.3960   20.7237 C   0  0  0  0  0  0  0  0  0  0  0  0
   47.1218    3.5959   17.0342 C   0  0  0  0  0  0  0  0  0  0  0  0
   49.3442    6.4021   20.1174 H   0  0  0  0  0  0  0  0  0  0  0  0
   46.4852    7.3729   20.2312 H   0  0  0  0  0  0  0  0  0  0  0  0
   47.4379    7.7049   21.6644 H   0  0  0  0  0  0  0  0  0  0  0  0
   47.5603    5.9035   18.3539 H   0  0  0  0  0  0  0  0  0  0  0  0
   46.6790    4.9701   19.5488 H   0  0  0  0  0  0  0  0  0  0  0  0
   49.5540    4.4110   18.6399 H   0  0  0  0  0  0  0  0  0  0  0  0
   48.6576    3.4438   19.8131 H   0  0  0  0  0  0  0  0  0  0  0  0
   47.5759    9.5926   20.2153 H   0  0  0  0  0  0  0  0  0  0  0  0
   49.1679    8.8543   20.3287 H   0  0  0  0  0  0  0  0  0  0  0  0
   48.8976    7.8511   18.0767 H   0  0  0  0  0  0  0  0  0  0  0  0
   48.5860    9.5869   18.0109 H   0  0  0  0  0  0  0  0  0  0  0  0
   47.2264    8.4523   17.9884 H   0  0  0  0  0  0  0  0  0  0  0  0
   47.8542    3.8654   16.8884 H   0  0  0  0  0  0  0  0  0  0  0  0
   46.9485    2.9010   18.0714 H   0  0  0  0  0  0  0  0  0  0  0  0
   48.5760    2.4021   17.5791 H   0  0  0  0  0  0  0  0  0  0  0  0
   48.1405    4.8148   20.8110 H   0  0  0  0  0  0  0  0  0  0  0  0
   51.4146    5.7184   20.7914 H   0  0  0  0  0  0  0  0  0  0  0  0
   46.4850    5.4300   18.9583 H   0  0  0  0  0  0  0  0  0  0  0  0
   47.8513    6.0425   18.0253 H   0  0  0  0  0  0  0  0  0  0  0  0
   48.2907    7.1053   21.7402 H   0  0  0  0  0  0  0  0  0  0  0  0
   46.6940    6.7285   21.1103 H   0  0  0  0  0  0  0  0  0  0  0  0
   47.5711    3.1834   19.0911 H   0  0  0  0  0  0  0  0  0  0  0  0
   48.9405    3.7805   18.1525 H   0  0  0  0  0  0  0  0  0  0  0  0
   48.7964    8.3967   19.6246 H   0  0  0  0  0  0  0  0  0  0  0  0
   47.1595    8.0614   19.0546 H   0  0  0  0  0  0  0  0  0  0  0  0
   47.8618    9.5856   21.6131 H   0  0  0  0  0  0  0  0  0  0  0  0
   47.2839   10.2904   20.0935 H   0  0  0  0  0  0  0  0  0  0  0  0
   46.2168    9.2412   21.0424 H   0  0  0  0  0  0  0  0  0  0  0  0
   46.0394    3.6773   17.1763 H   0  0  0  0  0  0  0  0  0  0  0  0
   47.3453    2.5761   16.7053 H   0  0  0  0  0  0  0  0  0  0  0  0
   47.4166    4.2833   16.2350 H   0  0  0  0  0  0  0  0  0  0  0  0
  3  2  1  0
  4  2  2  0
  5  2  1  0
  6  5  1  0
  7  5  1  0
  8  7  1  0
  9  6  1  0
 10  9  1  0
 11  8  1  0
 13 12  2  0
 14 12  1  0
 15 12  1  0
 16 14  1  0
 17 14  1  0
 18 16  1  0
 19 17  1  0
 20 19  1  0
 21 18  1  0
  5 22  1  0
  6 23  1  0
  6 24  1  0
  7 25  1  0
  7 26  1  0
  8 27  1  0
  8 28  1  0
  9 29  1  0
  9 30  1  0
 10 31  1  0
 10 32  1  0
 10 33  1  0
 11 34  1  0
 11 35  1  0
 11 36  1  0
 14 37  1  0
 15 38  1  0
 16 39  1  0
 16 40  1  0
 17 41  1  0
 17 42  1  0
 18 43  1  0
 18 44  1  0
 19 45  1  0
 19 46  1  0
 20 47  1  0
 20 48  1  0
 20 49  1  0
 21 50  1  0
 21 51  1  0
 21 52  1  0
M  CHG  2   1   1   3  -1
M  END
> <Uni-Dock RESULT> 
ENERGY=   -4.553  LOWER_BOUND=    7.903  UPPER_BOUND=    9.296
INTER + INTRA:          -4.553
INTER:                  -4.553
INTRA:                   0.000
UNBOUND:                 0.000

$$$$
