
     RDKit          3D

 52 49  0  0  0  0  0  0  0  0999 V2000
   44.7183    5.7686   10.9652 Na  0  0  0  0  0 15  0  0  0  0  0  0
   43.0439    5.1705   12.3701 C   0  0  0  0  0  0  0  0  0  0  0  0
   43.0126    4.2713   13.2592 O   0  0  0  0  0  0  0  0  0  0  0  0
   42.1502    5.9978   12.0354 O   0  0  0  0  0  0  0  0  0  0  0  0
   44.3713    5.2493   11.5872 C   0  0  0  0  0  0  0  0  0  0  0  0
   44.0785    4.5551   10.2450 C   0  0  0  0  0  0  0  0  0  0  0  0
   44.8600    6.6939   11.4151 C   0  0  0  0  0  0  0  0  0  0  0  0
   45.2016    7.3562   12.7541 C   0  0  0  0  0  0  0  0  0  0  0  0
   45.3435    4.2537    9.4367 C   0  0  0  0  0  0  0  0  0  0  0  0
   45.0192    3.4780    8.1687 C   0  0  0  0  0  0  0  0  0  0  0  0
   45.7336    8.7673   12.5555 C   0  0  0  0  0  0  0  0  0  0  0  0
   43.3917    5.3405   11.8794 C   0  0  0  0  0  0  0  0  0  0  0  0
   42.2928    5.7351   11.5272 O   0  0  0  0  0  0  0  0  0  0  0  0
   44.7154    5.6152   11.1991 C   0  0  0  0  0  0  0  0  0  0  0  0
   43.5241    4.5749   12.9794 O   0  0  0  0  0  0  0  0  0  0  0  0
   44.6896    5.0508    9.7681 C   0  0  0  0  0  0  0  0  0  0  0  0
   44.9837    7.1300   11.1800 C   0  0  0  0  0  0  0  0  0  0  0  0
   44.6268    3.5203    9.7404 C   0  0  0  0  0  0  0  0  0  0  0  0
   45.2187    7.7035   12.5811 C   0  0  0  0  0  0  0  0  0  0  0  0
   45.5351    9.1901   12.5261 C   0  0  0  0  0  0  0  0  0  0  0  0
   44.6579    2.9895    8.3155 C   0  0  0  0  0  0  0  0  0  0  0  0
   45.1338    4.6754   12.1301 H   0  0  0  0  0  0  0  0  0  0  0  0
   43.5496    3.6102   10.4294 H   0  0  0  0  0  0  0  0  0  0  0  0
   43.4013    5.1734    9.6410 H   0  0  0  0  0  0  0  0  0  0  0  0
   45.7591    6.7056   10.7887 H   0  0  0  0  0  0  0  0  0  0  0  0
   44.1068    7.2959   10.8917 H   0  0  0  0  0  0  0  0  0  0  0  0
   45.9554    6.7598   13.2813 H   0  0  0  0  0  0  0  0  0  0  0  0
   44.3153    7.4007   13.3964 H   0  0  0  0  0  0  0  0  0  0  0  0
   46.0437    3.6694   10.0447 H   0  0  0  0  0  0  0  0  0  0  0  0
   45.8500    5.1829    9.1567 H   0  0  0  0  0  0  0  0  0  0  0  0
   45.9348    3.2752    7.6041 H   0  0  0  0  0  0  0  0  0  0  0  0
   44.3411    4.0464    7.5240 H   0  0  0  0  0  0  0  0  0  0  0  0
   44.5469    2.5191    8.4046 H   0  0  0  0  0  0  0  0  0  0  0  0
   44.9919    9.3991   12.0564 H   0  0  0  0  0  0  0  0  0  0  0  0
   46.6449    8.7617   11.9490 H   0  0  0  0  0  0  0  0  0  0  0  0
   45.9720    9.2218   13.5221 H   0  0  0  0  0  0  0  0  0  0  0  0
   45.5189    5.1207   11.7599 H   0  0  0  0  0  0  0  0  0  0  0  0
   42.6071    4.4786   13.3121 H   0  0  0  0  0  0  0  0  0  0  0  0
   43.8334    5.4594    9.2161 H   0  0  0  0  0  0  0  0  0  0  0  0
   45.5937    5.3741    9.2368 H   0  0  0  0  0  0  0  0  0  0  0  0
   44.1442    7.6566   10.7080 H   0  0  0  0  0  0  0  0  0  0  0  0
   45.8706    7.3312   10.5658 H   0  0  0  0  0  0  0  0  0  0  0  0
   43.7118    3.1674   10.2289 H   0  0  0  0  0  0  0  0  0  0  0  0
   45.4743    3.1036   10.2969 H   0  0  0  0  0  0  0  0  0  0  0  0
   44.3323    7.5540   13.2077 H   0  0  0  0  0  0  0  0  0  0  0  0
   46.0506    7.1773   13.0633 H   0  0  0  0  0  0  0  0  0  0  0  0
   44.7095    9.7502   12.0757 H   0  0  0  0  0  0  0  0  0  0  0  0
   45.6995    9.5801   13.5355 H   0  0  0  0  0  0  0  0  0  0  0  0
   46.4394    9.3776   11.9383 H   0  0  0  0  0  0  0  0  0  0  0  0
   43.8060    3.3640    7.7390 H   0  0  0  0  0  0  0  0  0  0  0  0
   44.6124    1.8960    8.3175 H   0  0  0  0  0  0  0  0  0  0  0  0
   45.5781    3.2900    7.8045 H   0  0  0  0  0  0  0  0  0  0  0  0
  3  2  1  0
  4  2  2  0
  5  2  1  0
  6  5  1  0
  7  5  1  0
  8  7  1  0
  9  6  1  0
 10  9  1  0
 11  8  1  0
 13 12  2  0
 14 12  1  0
 15 12  1  0
 16 14  1  0
 17 14  1  0
 18 16  1  0
 19 17  1  0
 20 19  1  0
 21 18  1  0
  5 22  1  0
  6 23  1  0
  6 24  1  0
  7 25  1  0
  7 26  1  0
  8 27  1  0
  8 28  1  0
  9 29  1  0
  9 30  1  0
 10 31  1  0
 10 32  1  0
 10 33  1  0
 11 34  1  0
 11 35  1  0
 11 36  1  0
 14 37  1  0
 15 38  1  0
 16 39  1  0
 16 40  1  0
 17 41  1  0
 17 42  1  0
 18 43  1  0
 18 44  1  0
 19 45  1  0
 19 46  1  0
 20 47  1  0
 20 48  1  0
 20 49  1  0
 21 50  1  0
 21 51  1  0
 21 52  1  0
M  CHG  2   1   1   3  -1
M  END
> <Uni-Dock RESULT> 
ENERGY=   -7.373  LOWER_BOUND=    0.000  UPPER_BOUND=    0.000
INTER + INTRA:          -7.373
INTER:                  -7.373
INTRA:                   0.000
UNBOUND:                 0.000

$$$$

     RDKit          3D

 52 49  0  0  0  0  0  0  0  0999 V2000
   44.9575    5.8007   11.1628 Na  0  0  0  0  0 15  0  0  0  0  0  0
   42.8676    5.5012   11.9860 C   0  0  0  0  0  0  0  0  0  0  0  0
   41.8218    6.1923   11.8167 O   0  0  0  0  0  0  0  0  0  0  0  0
   43.0269    4.4380   12.6491 O   0  0  0  0  0  0  0  0  0  0  0  0
   44.1216    6.0556   11.2781 C   0  0  0  0  0  0  0  0  0  0  0  0
   44.9310    6.7432   12.3922 C   0  0  0  0  0  0  0  0  0  0  0  0
   44.9157    4.9577   10.5575 C   0  0  0  0  0  0  0  0  0  0  0  0
   44.1200    4.3189    9.4143 C   0  0  0  0  0  0  0  0  0  0  0  0
   46.0643    7.6219   11.8557 C   0  0  0  0  0  0  0  0  0  0  0  0
   46.7723    8.3615   12.9812 C   0  0  0  0  0  0  0  0  0  0  0  0
   44.9449    3.2720    8.6813 C   0  0  0  0  0  0  0  0  0  0  0  0
   43.4853    5.5473   11.9027 C   0  0  0  0  0  0  0  0  0  0  0  0
   43.4407    4.7986   12.8643 O   0  0  0  0  0  0  0  0  0  0  0  0
   44.7100    5.9090   11.0903 C   0  0  0  0  0  0  0  0  0  0  0  0
   42.3696    6.1547   11.4555 O   0  0  0  0  0  0  0  0  0  0  0  0
   45.7477    6.5957   11.9951 C   0  0  0  0  0  0  0  0  0  0  0  0
   45.3016    4.6404   10.4520 C   0  0  0  0  0  0  0  0  0  0  0  0
   45.2782    7.9660   12.4940 C   0  0  0  0  0  0  0  0  0  0  0  0
   44.3807    4.0321    9.3894 C   0  0  0  0  0  0  0  0  0  0  0  0
   45.0148    2.8128    8.7380 C   0  0  0  0  0  0  0  0  0  0  0  0
   46.3451    8.6438   13.3398 C   0  0  0  0  0  0  0  0  0  0  0  0
   43.8064    6.8097   10.5449 H   0  0  0  0  0  0  0  0  0  0  0  0
   44.2617    7.3692   12.9978 H   0  0  0  0  0  0  0  0  0  0  0  0
   45.3479    5.9903   13.0743 H   0  0  0  0  0  0  0  0  0  0  0  0
   45.8344    5.3835   10.1385 H   0  0  0  0  0  0  0  0  0  0  0  0
   45.2268    4.1793   11.2653 H   0  0  0  0  0  0  0  0  0  0  0  0
   43.8077    5.0920    8.7025 H   0  0  0  0  0  0  0  0  0  0  0  0
   43.2104    3.8451    9.7990 H   0  0  0  0  0  0  0  0  0  0  0  0
   45.6640    8.3523   11.1434 H   0  0  0  0  0  0  0  0  0  0  0  0
   46.8010    7.0135   11.3213 H   0  0  0  0  0  0  0  0  0  0  0  0
   47.5798    8.9810   12.5782 H   0  0  0  0  0  0  0  0  0  0  0  0
   47.2083    7.6590   13.6986 H   0  0  0  0  0  0  0  0  0  0  0  0
   46.0787    9.0161   13.5185 H   0  0  0  0  0  0  0  0  0  0  0  0
   45.2492    2.4679    9.3589 H   0  0  0  0  0  0  0  0  0  0  0  0
   45.8465    3.7158    8.2471 H   0  0  0  0  0  0  0  0  0  0  0  0
   44.3598    2.8291    7.8693 H   0  0  0  0  0  0  0  0  0  0  0  0
   44.4211    6.6048   10.2922 H   0  0  0  0  0  0  0  0  0  0  0  0
   41.6681    5.8364   12.0616 H   0  0  0  0  0  0  0  0  0  0  0  0
   45.9806    5.9559   12.8560 H   0  0  0  0  0  0  0  0  0  0  0  0
   46.6824    6.7279   11.4355 H   0  0  0  0  0  0  0  0  0  0  0  0
   45.5093    3.8898   11.2255 H   0  0  0  0  0  0  0  0  0  0  0  0
   46.2625    4.8874    9.9830 H   0  0  0  0  0  0  0  0  0  0  0  0
   44.3665    7.8618   13.0925 H   0  0  0  0  0  0  0  0  0  0  0  0
   45.0353    8.6090   11.6401 H   0  0  0  0  0  0  0  0  0  0  0  0
   43.4252    3.7367    9.8371 H   0  0  0  0  0  0  0  0  0  0  0  0
   44.1613    4.7781    8.6169 H   0  0  0  0  0  0  0  0  0  0  0  0
   45.2202    2.0344    9.4798 H   0  0  0  0  0  0  0  0  0  0  0  0
   44.3422    2.3938    7.9831 H   0  0  0  0  0  0  0  0  0  0  0  0
   45.9563    3.0758    8.2454 H   0  0  0  0  0  0  0  0  0  0  0  0
   46.5903    8.0399   14.2192 H   0  0  0  0  0  0  0  0  0  0  0  0
   45.9908    9.6198   13.6858 H   0  0  0  0  0  0  0  0  0  0  0  0
   47.2623    8.8005   12.7633 H   0  0  0  0  0  0  0  0  0  0  0  0
  3  2  1  0
  4  2  2  0
  5  2  1  0
  6  5  1  0
  7  5  1  0
  8  7  1  0
  9  6  1  0
 10  9  1  0
 11  8  1  0
 13 12  2  0
 14 12  1  0
 15 12  1  0
 16 14  1  0
 17 14  1  0
 18 16  1  0
 19 17  1  0
 20 19  1  0
 21 18  1  0
  5 22  1  0
  6 23  1  0
  6 24  1  0
  7 25  1  0
  7 26  1  0
  8 27  1  0
  8 28  1  0
  9 29  1  0
  9 30  1  0
 10 31  1  0
 10 32  1  0
 10 33  1  0
 11 34  1  0
 11 35  1  0
 11 36  1  0
 14 37  1  0
 15 38  1  0
 16 39  1  0
 16 40  1  0
 17 41  1  0
 17 42  1  0
 18 43  1  0
 18 44  1  0
 19 45  1  0
 19 46  1  0
 20 47  1  0
 20 48  1  0
 20 49  1  0
 21 50  1  0
 21 51  1  0
 21 52  1  0
M  CHG  2   1   1   3  -1
M  END
> <Uni-Dock RESULT> 
ENERGY=   -7.228  LOWER_BOUND=    0.721  UPPER_BOUND=    4.106
INTER + INTRA:          -7.228
INTER:                  -7.228
INTRA:                   0.000
UNBOUND:                 0.000

$$$$

     RDKit          3D

 52 49  0  0  0  0  0  0  0  0999 V2000
   45.1474    5.9965   11.2978 Na  0  0  0  0  0 15  0  0  0  0  0  0
   43.7264    4.9951   12.7515 C   0  0  0  0  0  0  0  0  0  0  0  0
   42.5737    5.3488   13.1336 O   0  0  0  0  0  0  0  0  0  0  0  0
   44.3948    3.9700   13.0642 O   0  0  0  0  0  0  0  0  0  0  0  0
   44.4009    5.9724   11.7661 C   0  0  0  0  0  0  0  0  0  0  0  0
   45.4112    6.7585   12.6208 C   0  0  0  0  0  0  0  0  0  0  0  0
   45.0595    5.2456   10.5857 C   0  0  0  0  0  0  0  0  0  0  0  0
   44.0375    4.5127    9.7100 C   0  0  0  0  0  0  0  0  0  0  0  0
   45.9739    7.9892   11.9044 C   0  0  0  0  0  0  0  0  0  0  0  0
   46.8874    8.7927   12.8181 C   0  0  0  0  0  0  0  0  0  0  0  0
   44.7058    3.8449    8.5179 C   0  0  0  0  0  0  0  0  0  0  0  0
   44.2230    5.2350   12.4574 C   0  0  0  0  0  0  0  0  0  0  0  0
   44.7618    4.4160   13.1828 O   0  0  0  0  0  0  0  0  0  0  0  0
   44.8742    6.0311   11.3471 C   0  0  0  0  0  0  0  0  0  0  0  0
   42.9132    5.5158   12.5963 O   0  0  0  0  0  0  0  0  0  0  0  0
   45.9980    6.9067   11.9279 C   0  0  0  0  0  0  0  0  0  0  0  0
   45.4298    5.0728   10.2794 C   0  0  0  0  0  0  0  0  0  0  0  0
   45.4674    8.0124   12.8461 C   0  0  0  0  0  0  0  0  0  0  0  0
   44.3242    4.3228    9.5296 C   0  0  0  0  0  0  0  0  0  0  0  0
   44.9000    3.4254    8.4450 C   0  0  0  0  0  0  0  0  0  0  0  0
   46.5945    8.8944   13.3608 C   0  0  0  0  0  0  0  0  0  0  0  0
   43.6400    6.6642   11.3815 H   0  0  0  0  0  0  0  0  0  0  0  0
   44.9266    7.0876   13.5500 H   0  0  0  0  0  0  0  0  0  0  0  0
   46.2398    6.1039   12.9217 H   0  0  0  0  0  0  0  0  0  0  0  0
   45.5904    5.9702    9.9579 H   0  0  0  0  0  0  0  0  0  0  0  0
   45.8120    4.5320   10.9436 H   0  0  0  0  0  0  0  0  0  0  0  0
   43.2835    5.2213    9.3478 H   0  0  0  0  0  0  0  0  0  0  0  0
   43.5117    3.7488   10.2931 H   0  0  0  0  0  0  0  0  0  0  0  0
   45.1526    8.6307   11.5651 H   0  0  0  0  0  0  0  0  0  0  0  0
   46.5430    7.6902   11.0183 H   0  0  0  0  0  0  0  0  0  0  0  0
   47.2813    9.6653   12.2875 H   0  0  0  0  0  0  0  0  0  0  0  0
   47.7356    8.1880   13.1547 H   0  0  0  0  0  0  0  0  0  0  0  0
   46.3463    9.1483   13.7007 H   0  0  0  0  0  0  0  0  0  0  0  0
   45.4459    3.1079    8.8456 H   0  0  0  0  0  0  0  0  0  0  0  0
   45.2111    4.5829    7.8867 H   0  0  0  0  0  0  0  0  0  0  0  0
   43.9599    3.3285    7.9057 H   0  0  0  0  0  0  0  0  0  0  0  0
   44.1232    6.6822   10.8816 H   0  0  0  0  0  0  0  0  0  0  0  0
   42.6252    4.9404   13.3357 H   0  0  0  0  0  0  0  0  0  0  0  0
   46.7127    6.2854   12.4829 H   0  0  0  0  0  0  0  0  0  0  0  0
   46.5543    7.3721   11.1043 H   0  0  0  0  0  0  0  0  0  0  0  0
   46.1123    4.3476   10.7410 H   0  0  0  0  0  0  0  0  0  0  0  0
   46.0195    5.6459    9.5527 H   0  0  0  0  0  0  0  0  0  0  0  0
   44.9408    7.5767   13.7023 H   0  0  0  0  0  0  0  0  0  0  0  0
   44.7462    8.6331   12.3018 H   0  0  0  0  0  0  0  0  0  0  0  0
   43.7420    3.7076   10.2247 H   0  0  0  0  0  0  0  0  0  0  0  0
   43.6329    5.0400    9.0723 H   0  0  0  0  0  0  0  0  0  0  0  0
   45.5738    2.6763    8.8727 H   0  0  0  0  0  0  0  0  0  0  0  0
   44.0953    2.8994    7.9218 H   0  0  0  0  0  0  0  0  0  0  0  0
   45.4590    4.0101    7.7075 H   0  0  0  0  0  0  0  0  0  0  0  0
   47.3190    8.3090   13.9357 H   0  0  0  0  0  0  0  0  0  0  0  0
   46.1952    9.6768   14.0137 H   0  0  0  0  0  0  0  0  0  0  0  0
   47.1226    9.3793   12.5337 H   0  0  0  0  0  0  0  0  0  0  0  0
  3  2  1  0
  4  2  2  0
  5  2  1  0
  6  5  1  0
  7  5  1  0
  8  7  1  0
  9  6  1  0
 10  9  1  0
 11  8  1  0
 13 12  2  0
 14 12  1  0
 15 12  1  0
 16 14  1  0
 17 14  1  0
 18 16  1  0
 19 17  1  0
 20 19  1  0
 21 18  1  0
  5 22  1  0
  6 23  1  0
  6 24  1  0
  7 25  1  0
  7 26  1  0
  8 27  1  0
  8 28  1  0
  9 29  1  0
  9 30  1  0
 10 31  1  0
 10 32  1  0
 10 33  1  0
 11 34  1  0
 11 35  1  0
 11 36  1  0
 14 37  1  0
 15 38  1  0
 16 39  1  0
 16 40  1  0
 17 41  1  0
 17 42  1  0
 18 43  1  0
 18 44  1  0
 19 45  1  0
 19 46  1  0
 20 47  1  0
 20 48  1  0
 20 49  1  0
 21 50  1  0
 21 51  1  0
 21 52  1  0
M  CHG  2   1   1   3  -1
M  END
> <Uni-Dock RESULT> 
ENERGY=   -6.767  LOWER_BOUND=    0.890  UPPER_BOUND=    4.123
INTER + INTRA:          -6.767
INTER:                  -6.767
INTRA:                   0.000
UNBOUND:                 0.000

$$$$

     RDKit          3D

 52 49  0  0  0  0  0  0  0  0999 V2000
   46.2583    6.0246   12.7242 Na  0  0  0  0  0 15  0  0  0  0  0  0
   46.6103    4.2982   14.1492 C   0  0  0  0  0  0  0  0  0  0  0  0
   46.7448    4.2984   15.4069 O   0  0  0  0  0  0  0  0  0  0  0  0
   46.6162    3.3260   13.3428 O   0  0  0  0  0  0  0  0  0  0  0  0
   46.4184    5.6970   13.5267 C   0  0  0  0  0  0  0  0  0  0  0  0
   47.7930    6.0562   12.9344 C   0  0  0  0  0  0  0  0  0  0  0  0
   45.2962    5.7188   12.4801 C   0  0  0  0  0  0  0  0  0  0  0  0
   43.9242    5.4148   13.0914 C   0  0  0  0  0  0  0  0  0  0  0  0
   47.9077    7.5297   12.5346 C   0  0  0  0  0  0  0  0  0  0  0  0
   49.3107    7.8650   12.0508 C   0  0  0  0  0  0  0  0  0  0  0  0
   42.8214    5.4942   12.0469 C   0  0  0  0  0  0  0  0  0  0  0  0
   46.6184    4.7008   13.6712 C   0  0  0  0  0  0  0  0  0  0  0  0
   47.0255    3.6897   13.1241 O   0  0  0  0  0  0  0  0  0  0  0  0
   46.2334    6.0025   13.0020 C   0  0  0  0  0  0  0  0  0  0  0  0
   46.4682    4.7423   15.0089 O   0  0  0  0  0  0  0  0  0  0  0  0
   47.4511    6.5857   12.2642 C   0  0  0  0  0  0  0  0  0  0  0  0
   45.0719    5.7582   12.0231 C   0  0  0  0  0  0  0  0  0  0  0  0
   48.5599    7.0336   13.2217 C   0  0  0  0  0  0  0  0  0  0  0  0
   43.7733    5.3688   12.7366 C   0  0  0  0  0  0  0  0  0  0  0  0
   42.6307    5.1876   11.7493 C   0  0  0  0  0  0  0  0  0  0  0  0
   49.7258    7.6553   12.4684 C   0  0  0  0  0  0  0  0  0  0  0  0
   46.1752    6.4075   14.3277 H   0  0  0  0  0  0  0  0  0  0  0  0
   48.5780    5.8326   13.6695 H   0  0  0  0  0  0  0  0  0  0  0  0
   48.0026    5.4260   12.0600 H   0  0  0  0  0  0  0  0  0  0  0  0
   45.2500    6.7083   12.0114 H   0  0  0  0  0  0  0  0  0  0  0  0
   45.5047    5.0018   11.6763 H   0  0  0  0  0  0  0  0  0  0  0  0
   43.7094    6.1293   13.8946 H   0  0  0  0  0  0  0  0  0  0  0  0
   43.9168    4.4139   13.5366 H   0  0  0  0  0  0  0  0  0  0  0  0
   47.6620    8.1683   13.3909 H   0  0  0  0  0  0  0  0  0  0  0  0
   47.1978    7.7666   11.7356 H   0  0  0  0  0  0  0  0  0  0  0  0
   49.3714    8.9205   11.7673 H   0  0  0  0  0  0  0  0  0  0  0  0
   49.5785    7.2624   11.1770 H   0  0  0  0  0  0  0  0  0  0  0  0
   50.0513    7.6816   12.8357 H   0  0  0  0  0  0  0  0  0  0  0  0
   42.9902    4.7707   11.2429 H   0  0  0  0  0  0  0  0  0  0  0  0
   42.7705    6.4944   11.6049 H   0  0  0  0  0  0  0  0  0  0  0  0
   41.8510    5.2751   12.5032 H   0  0  0  0  0  0  0  0  0  0  0  0
   45.9067    6.7187   13.7667 H   0  0  0  0  0  0  0  0  0  0  0  0
   46.7481    3.8511   15.3059 H   0  0  0  0  0  0  0  0  0  0  0  0
   47.8556    5.8473   11.5600 H   0  0  0  0  0  0  0  0  0  0  0  0
   47.1316    7.4506   11.6690 H   0  0  0  0  0  0  0  0  0  0  0  0
   45.3415    4.9730   11.3051 H   0  0  0  0  0  0  0  0  0  0  0  0
   44.8921    6.6717   11.4420 H   0  0  0  0  0  0  0  0  0  0  0  0
   48.9292    6.1812   13.8027 H   0  0  0  0  0  0  0  0  0  0  0  0
   48.1623    7.7654   13.9344 H   0  0  0  0  0  0  0  0  0  0  0  0
   43.9098    4.4354   13.2940 H   0  0  0  0  0  0  0  0  0  0  0  0
   43.5010    6.1442   13.4620 H   0  0  0  0  0  0  0  0  0  0  0  0
   42.8586    4.3975   11.0267 H   0  0  0  0  0  0  0  0  0  0  0  0
   41.7134    4.9102   12.2780 H   0  0  0  0  0  0  0  0  0  0  0  0
   42.4378    6.1132   11.1977 H   0  0  0  0  0  0  0  0  0  0  0  0
   50.1660    6.9391   11.7674 H   0  0  0  0  0  0  0  0  0  0  0  0
   50.5060    7.9682   13.1692 H   0  0  0  0  0  0  0  0  0  0  0  0
   49.4035    8.5359   11.9037 H   0  0  0  0  0  0  0  0  0  0  0  0
  3  2  1  0
  4  2  2  0
  5  2  1  0
  6  5  1  0
  7  5  1  0
  8  7  1  0
  9  6  1  0
 10  9  1  0
 11  8  1  0
 13 12  2  0
 14 12  1  0
 15 12  1  0
 16 14  1  0
 17 14  1  0
 18 16  1  0
 19 17  1  0
 20 19  1  0
 21 18  1  0
  5 22  1  0
  6 23  1  0
  6 24  1  0
  7 25  1  0
  7 26  1  0
  8 27  1  0
  8 28  1  0
  9 29  1  0
  9 30  1  0
 10 31  1  0
 10 32  1  0
 10 33  1  0
 11 34  1  0
 11 35  1  0
 11 36  1  0
 14 37  1  0
 15 38  1  0
 16 39  1  0
 16 40  1  0
 17 41  1  0
 17 42  1  0
 18 43  1  0
 18 44  1  0
 19 45  1  0
 19 46  1  0
 20 47  1  0
 20 48  1  0
 20 49  1  0
 21 50  1  0
 21 51  1  0
 21 52  1  0
M  CHG  2   1   1   3  -1
M  END
> <Uni-Dock RESULT> 
ENERGY=   -5.940  LOWER_BOUND=    2.973  UPPER_BOUND=    4.502
INTER + INTRA:          -5.940
INTER:                  -5.940
INTRA:                   0.000
UNBOUND:                 0.000

$$$$

     RDKit          3D

 52 49  0  0  0  0  0  0  0  0999 V2000
   46.2641    6.0403   12.8499 Na  0  0  0  0  0 15  0  0  0  0  0  0
   46.8843    4.2616   14.1096 C   0  0  0  0  0  0  0  0  0  0  0  0
   47.1741    3.0810   13.7601 O   0  0  0  0  0  0  0  0  0  0  0  0
   46.8810    4.7781   15.2623 O   0  0  0  0  0  0  0  0  0  0  0  0
   46.4714    5.1891   12.9476 C   0  0  0  0  0  0  0  0  0  0  0  0
   44.9361    5.2625   13.0288 C   0  0  0  0  0  0  0  0  0  0  0  0
   47.1381    6.5684   13.0394 C   0  0  0  0  0  0  0  0  0  0  0  0
   48.6622    6.4886   12.9013 C   0  0  0  0  0  0  0  0  0  0  0  0
   44.2985    5.8869   11.7847 C   0  0  0  0  0  0  0  0  0  0  0  0
   42.7795    5.8469   11.8612 C   0  0  0  0  0  0  0  0  0  0  0  0
   49.2962    7.8706   12.9419 C   0  0  0  0  0  0  0  0  0  0  0  0
   46.6104    4.7721   13.8750 C   0  0  0  0  0  0  0  0  0  0  0  0
   46.3397    4.8920   15.0581 O   0  0  0  0  0  0  0  0  0  0  0  0
   46.3835    5.7960   12.7839 C   0  0  0  0  0  0  0  0  0  0  0  0
   47.1726    3.6390   13.4127 O   0  0  0  0  0  0  0  0  0  0  0  0
   44.8812    6.1080   12.6703 C   0  0  0  0  0  0  0  0  0  0  0  0
   47.1806    7.0738   13.0984 C   0  0  0  0  0  0  0  0  0  0  0  0
   44.0691    4.9127   12.1616 C   0  0  0  0  0  0  0  0  0  0  0  0
   48.6952    6.8558   13.0230 C   0  0  0  0  0  0  0  0  0  0  0  0
   49.4552    8.1471   13.2843 C   0  0  0  0  0  0  0  0  0  0  0  0
   42.5980    5.2668   12.0074 C   0  0  0  0  0  0  0  0  0  0  0  0
   46.7592    4.7144   12.0002 H   0  0  0  0  0  0  0  0  0  0  0  0
   44.5278    4.2511   13.1592 H   0  0  0  0  0  0  0  0  0  0  0  0
   44.6328    5.8329   13.9166 H   0  0  0  0  0  0  0  0  0  0  0  0
   46.7559    7.2152   12.2417 H   0  0  0  0  0  0  0  0  0  0  0  0
   46.8826    7.0577   13.9876 H   0  0  0  0  0  0  0  0  0  0  0  0
   48.9238    6.0018   11.9545 H   0  0  0  0  0  0  0  0  0  0  0  0
   49.0884    5.8813   13.7073 H   0  0  0  0  0  0  0  0  0  0  0  0
   44.6262    5.3485   10.8880 H   0  0  0  0  0  0  0  0  0  0  0  0
   44.6143    6.9292   11.6741 H   0  0  0  0  0  0  0  0  0  0  0  0
   42.3430    6.2998   10.9654 H   0  0  0  0  0  0  0  0  0  0  0  0
   42.4161    6.3998   12.7333 H   0  0  0  0  0  0  0  0  0  0  0  0
   42.4166    4.8165   11.9312 H   0  0  0  0  0  0  0  0  0  0  0  0
   49.0783    8.3741   13.8892 H   0  0  0  0  0  0  0  0  0  0  0  0
   48.9240    8.4976   12.1253 H   0  0  0  0  0  0  0  0  0  0  0  0
   50.3831    7.7919   12.8410 H   0  0  0  0  0  0  0  0  0  0  0  0
   46.7333    5.3876   11.8271 H   0  0  0  0  0  0  0  0  0  0  0  0
   47.2604    3.0762   14.2104 H   0  0  0  0  0  0  0  0  0  0  0  0
   44.4869    6.4273   13.6436 H   0  0  0  0  0  0  0  0  0  0  0  0
   44.7389    6.9481   11.9788 H   0  0  0  0  0  0  0  0  0  0  0  0
   46.9166    7.4479   14.0960 H   0  0  0  0  0  0  0  0  0  0  0  0
   46.9032    7.8572   12.3818 H   0  0  0  0  0  0  0  0  0  0  0  0
   44.1584    4.0686   12.8545 H   0  0  0  0  0  0  0  0  0  0  0  0
   44.4618    4.5818   11.1932 H   0  0  0  0  0  0  0  0  0  0  0  0
   49.0094    6.1062   13.7578 H   0  0  0  0  0  0  0  0  0  0  0  0
   48.9668    6.4740   12.0321 H   0  0  0  0  0  0  0  0  0  0  0  0
   49.2287    8.5406   14.2804 H   0  0  0  0  0  0  0  0  0  0  0  0
   50.5337    7.9704   13.2259 H   0  0  0  0  0  0  0  0  0  0  0  0
   49.1959    8.9117   12.5451 H   0  0  0  0  0  0  0  0  0  0  0  0
   42.1664    5.5741   12.9653 H   0  0  0  0  0  0  0  0  0  0  0  0
   42.0361    4.4010   11.6435 H   0  0  0  0  0  0  0  0  0  0  0  0
   42.4638    6.0839   11.2916 H   0  0  0  0  0  0  0  0  0  0  0  0
  3  2  1  0
  4  2  2  0
  5  2  1  0
  6  5  1  0
  7  5  1  0
  8  7  1  0
  9  6  1  0
 10  9  1  0
 11  8  1  0
 13 12  2  0
 14 12  1  0
 15 12  1  0
 16 14  1  0
 17 14  1  0
 18 16  1  0
 19 17  1  0
 20 19  1  0
 21 18  1  0
  5 22  1  0
  6 23  1  0
  6 24  1  0
  7 25  1  0
  7 26  1  0
  8 27  1  0
  8 28  1  0
  9 29  1  0
  9 30  1  0
 10 31  1  0
 10 32  1  0
 10 33  1  0
 11 34  1  0
 11 35  1  0
 11 36  1  0
 14 37  1  0
 15 38  1  0
 16 39  1  0
 16 40  1  0
 17 41  1  0
 17 42  1  0
 18 43  1  0
 18 44  1  0
 19 45  1  0
 19 46  1  0
 20 47  1  0
 20 48  1  0
 20 49  1  0
 21 50  1  0
 21 51  1  0
 21 52  1  0
M  CHG  2   1   1   3  -1
M  END
> <Uni-Dock RESULT> 
ENERGY=   -5.527  LOWER_BOUND=    2.903  UPPER_BOUND=    3.805
INTER + INTRA:          -5.527
INTER:                  -5.527
INTRA:                   0.000
UNBOUND:                 0.000

$$$$

     RDKit          3D

 52 49  0  0  0  0  0  0  0  0999 V2000
   48.4519    4.8838   20.2238 Na  0  0  0  0  0 15  0  0  0  0  0  0
   47.2830    6.3146   18.9117 C   0  0  0  0  0  0  0  0  0  0  0  0
   47.4832    7.5394   18.6671 O   0  0  0  0  0  0  0  0  0  0  0  0
   46.3818    5.5466   18.4720 O   0  0  0  0  0  0  0  0  0  0  0  0
   48.2914    5.6863   19.8963 C   0  0  0  0  0  0  0  0  0  0  0  0
   47.5415    5.6198   21.2388 C   0  0  0  0  0  0  0  0  0  0  0  0
   48.7870    4.3129   19.4235 C   0  0  0  0  0  0  0  0  0  0  0  0
   49.5800    4.3990   18.1151 C   0  0  0  0  0  0  0  0  0  0  0  0
   48.4594    5.3087   22.4241 C   0  0  0  0  0  0  0  0  0  0  0  0
   47.6985    5.3533   23.7409 C   0  0  0  0  0  0  0  0  0  0  0  0
   50.1060    3.0353   17.6942 C   0  0  0  0  0  0  0  0  0  0  0  0
   47.4648    5.8762   19.3184 C   0  0  0  0  0  0  0  0  0  0  0  0
   46.3375    5.4911   19.0573 O   0  0  0  0  0  0  0  0  0  0  0  0
   48.5147    5.1348   20.1174 C   0  0  0  0  0  0  0  0  0  0  0  0
   47.8955    7.0766   18.8857 O   0  0  0  0  0  0  0  0  0  0  0  0
   47.9966    4.8806   21.5436 C   0  0  0  0  0  0  0  0  0  0  0  0
   48.8554    3.8069   19.4192 C   0  0  0  0  0  0  0  0  0  0  0  0
   47.8343    6.1732   22.3497 C   0  0  0  0  0  0  0  0  0  0  0  0
   49.5621    4.0131   18.0756 C   0  0  0  0  0  0  0  0  0  0  0  0
   49.9350    2.6849   17.4354 C   0  0  0  0  0  0  0  0  0  0  0  0
   47.3740    5.8868   23.7707 C   0  0  0  0  0  0  0  0  0  0  0  0
   49.1509    6.3620   19.9975 H   0  0  0  0  0  0  0  0  0  0  0  0
   47.0425    6.5801   21.4273 H   0  0  0  0  0  0  0  0  0  0  0  0
   46.7458    4.8648   21.1887 H   0  0  0  0  0  0  0  0  0  0  0  0
   49.4366    3.8733   20.1888 H   0  0  0  0  0  0  0  0  0  0  0  0
   47.9443    3.6223   19.2949 H   0  0  0  0  0  0  0  0  0  0  0  0
   50.4248    5.0867   18.2380 H   0  0  0  0  0  0  0  0  0  0  0  0
   48.9510    4.7976   17.3117 H   0  0  0  0  0  0  0  0  0  0  0  0
   49.2802    6.0341   22.4601 H   0  0  0  0  0  0  0  0  0  0  0  0
   48.9056    4.3152   22.3131 H   0  0  0  0  0  0  0  0  0  0  0  0
   48.3704    5.1257   24.5745 H   0  0  0  0  0  0  0  0  0  0  0  0
   46.8859    4.6199   23.7491 H   0  0  0  0  0  0  0  0  0  0  0  0
   47.2688    6.3453   23.9129 H   0  0  0  0  0  0  0  0  0  0  0  0
   49.2838    2.3305   17.5341 H   0  0  0  0  0  0  0  0  0  0  0  0
   50.7725    2.6191   18.4564 H   0  0  0  0  0  0  0  0  0  0  0  0
   50.6693    3.1184   16.7596 H   0  0  0  0  0  0  0  0  0  0  0  0
   49.4235    5.7474   20.1752 H   0  0  0  0  0  0  0  0  0  0  0  0
   47.1296    7.4390   18.3929 H   0  0  0  0  0  0  0  0  0  0  0  0
   47.0355    4.3517   21.5079 H   0  0  0  0  0  0  0  0  0  0  0  0
   48.7007    4.2247   22.0712 H   0  0  0  0  0  0  0  0  0  0  0  0
   47.9429    3.2171   19.2631 H   0  0  0  0  0  0  0  0  0  0  0  0
   49.5090    3.2140   20.0716 H   0  0  0  0  0  0  0  0  0  0  0  0
   47.1043    6.8335   21.8684 H   0  0  0  0  0  0  0  0  0  0  0  0
   48.7881    6.7123   22.3834 H   0  0  0  0  0  0  0  0  0  0  0  0
   48.9160    4.5683   17.3865 H   0  0  0  0  0  0  0  0  0  0  0  0
   50.4706    4.6087   18.2212 H   0  0  0  0  0  0  0  0  0  0  0  0
   49.0446    2.0760   17.2487 H   0  0  0  0  0  0  0  0  0  0  0  0
   50.4380    2.8537   16.4781 H   0  0  0  0  0  0  0  0  0  0  0  0
   50.6127    2.1152   18.0792 H   0  0  0  0  0  0  0  0  0  0  0  0
   46.4071    5.3738   23.7736 H   0  0  0  0  0  0  0  0  0  0  0  0
   47.2644    6.8217   24.3291 H   0  0  0  0  0  0  0  0  0  0  0  0
   48.0984    5.2588   24.2990 H   0  0  0  0  0  0  0  0  0  0  0  0
  3  2  1  0
  4  2  2  0
  5  2  1  0
  6  5  1  0
  7  5  1  0
  8  7  1  0
  9  6  1  0
 10  9  1  0
 11  8  1  0
 13 12  2  0
 14 12  1  0
 15 12  1  0
 16 14  1  0
 17 14  1  0
 18 16  1  0
 19 17  1  0
 20 19  1  0
 21 18  1  0
  5 22  1  0
  6 23  1  0
  6 24  1  0
  7 25  1  0
  7 26  1  0
  8 27  1  0
  8 28  1  0
  9 29  1  0
  9 30  1  0
 10 31  1  0
 10 32  1  0
 10 33  1  0
 11 34  1  0
 11 35  1  0
 11 36  1  0
 14 37  1  0
 15 38  1  0
 16 39  1  0
 16 40  1  0
 17 41  1  0
 17 42  1  0
 18 43  1  0
 18 44  1  0
 19 45  1  0
 19 46  1  0
 20 47  1  0
 20 48  1  0
 20 49  1  0
 21 50  1  0
 21 51  1  0
 21 52  1  0
M  CHG  2   1   1   3  -1
M  END
> <Uni-Dock RESULT> 
ENERGY=   -5.445  LOWER_BOUND=    8.604  UPPER_BOUND=   10.411
INTER + INTRA:          -5.445
INTER:                  -5.445
INTRA:                   0.000
UNBOUND:                 0.000

$$$$

     RDKit          3D

 52 49  0  0  0  0  0  0  0  0999 V2000
   48.9357    4.2194   18.2238 Na  0  0  0  0  0 15  0  0  0  0  0  0
   47.2106    3.5203   16.9314 C   0  0  0  0  0  0  0  0  0  0  0  0
   46.7819    3.9779   15.8329 O   0  0  0  0  0  0  0  0  0  0  0  0
   46.8023    2.5301   17.6008 O   0  0  0  0  0  0  0  0  0  0  0  0
   48.4004    4.3007   17.5282 C   0  0  0  0  0  0  0  0  0  0  0  0
   47.7840    5.1686   18.6400 C   0  0  0  0  0  0  0  0  0  0  0  0
   49.5059    3.3700   18.0447 C   0  0  0  0  0  0  0  0  0  0  0  0
   50.1504    2.5519   16.9205 C   0  0  0  0  0  0  0  0  0  0  0  0
   48.7397    6.2462   19.1595 C   0  0  0  0  0  0  0  0  0  0  0  0
   48.0589    7.1445   20.1815 C   0  0  0  0  0  0  0  0  0  0  0  0
   51.2778    1.6770   17.4471 C   0  0  0  0  0  0  0  0  0  0  0  0
   47.5856    3.6897   17.4018 C   0  0  0  0  0  0  0  0  0  0  0  0
   46.7927    2.9733   17.9895 O   0  0  0  0  0  0  0  0  0  0  0  0
   48.8667    4.2728   17.9580 C   0  0  0  0  0  0  0  0  0  0  0  0
   47.3691    4.0438   16.1206 O   0  0  0  0  0  0  0  0  0  0  0  0
   48.5447    5.1809   19.1574 C   0  0  0  0  0  0  0  0  0  0  0  0
   49.8143    3.1357   18.3775 C   0  0  0  0  0  0  0  0  0  0  0  0
   47.7700    6.4388   18.7516 C   0  0  0  0  0  0  0  0  0  0  0  0
   50.3244    2.3240   17.1824 C   0  0  0  0  0  0  0  0  0  0  0  0
   51.3004    1.2435   17.6218 C   0  0  0  0  0  0  0  0  0  0  0  0
   47.5142    7.3428   19.9477 C   0  0  0  0  0  0  0  0  0  0  0  0
   48.8168    4.9547   16.7507 H   0  0  0  0  0  0  0  0  0  0  0  0
   46.8779    5.6601   18.2606 H   0  0  0  0  0  0  0  0  0  0  0  0
   47.4622    4.5353   19.4773 H   0  0  0  0  0  0  0  0  0  0  0  0
   50.2900    3.9636   18.5282 H   0  0  0  0  0  0  0  0  0  0  0  0
   49.1114    2.6907   18.8105 H   0  0  0  0  0  0  0  0  0  0  0  0
   50.5481    3.2255   16.1526 H   0  0  0  0  0  0  0  0  0  0  0  0
   49.4043    1.9122   16.4365 H   0  0  0  0  0  0  0  0  0  0  0  0
   49.0977    6.8602   18.3252 H   0  0  0  0  0  0  0  0  0  0  0  0
   49.6164    5.7876   19.6280 H   0  0  0  0  0  0  0  0  0  0  0  0
   48.7583    7.9053   20.5425 H   0  0  0  0  0  0  0  0  0  0  0  0
   47.7120    6.5653   21.0432 H   0  0  0  0  0  0  0  0  0  0  0  0
   47.1975    7.6572   19.7419 H   0  0  0  0  0  0  0  0  0  0  0  0
   50.9080    0.9704   18.1970 H   0  0  0  0  0  0  0  0  0  0  0  0
   52.0650    2.2844   17.9051 H   0  0  0  0  0  0  0  0  0  0  0  0
   51.7247    1.1024   16.6298 H   0  0  0  0  0  0  0  0  0  0  0  0
   49.3570    4.8733   17.1812 H   0  0  0  0  0  0  0  0  0  0  0  0
   46.5226    3.6047   15.8938 H   0  0  0  0  0  0  0  0  0  0  0  0
   47.9678    4.6254   19.9080 H   0  0  0  0  0  0  0  0  0  0  0  0
   49.4818    5.4869   19.6396 H   0  0  0  0  0  0  0  0  0  0  0  0
   49.3094    2.4642   19.0838 H   0  0  0  0  0  0  0  0  0  0  0  0
   50.6769    3.5617   18.9055 H   0  0  0  0  0  0  0  0  0  0  0  0
   46.8083    6.1660   18.3030 H   0  0  0  0  0  0  0  0  0  0  0  0
   48.3355    6.9957   17.9956 H   0  0  0  0  0  0  0  0  0  0  0  0
   49.4868    1.8511   16.6575 H   0  0  0  0  0  0  0  0  0  0  0  0
   50.8230    2.9886   16.4675 H   0  0  0  0  0  0  0  0  0  0  0  0
   50.8241    0.5435   18.3156 H   0  0  0  0  0  0  0  0  0  0  0  0
   51.6527    0.6759   16.7548 H   0  0  0  0  0  0  0  0  0  0  0  0
   52.1725    1.6806   18.1185 H   0  0  0  0  0  0  0  0  0  0  0  0
   46.9245    6.8253   20.7110 H   0  0  0  0  0  0  0  0  0  0  0  0
   46.9606    8.2344   19.6372 H   0  0  0  0  0  0  0  0  0  0  0  0
   48.4552    7.6686   20.4020 H   0  0  0  0  0  0  0  0  0  0  0  0
  3  2  1  0
  4  2  2  0
  5  2  1  0
  6  5  1  0
  7  5  1  0
  8  7  1  0
  9  6  1  0
 10  9  1  0
 11  8  1  0
 13 12  2  0
 14 12  1  0
 15 12  1  0
 16 14  1  0
 17 14  1  0
 18 16  1  0
 19 17  1  0
 20 19  1  0
 21 18  1  0
  5 22  1  0
  6 23  1  0
  6 24  1  0
  7 25  1  0
  7 26  1  0
  8 27  1  0
  8 28  1  0
  9 29  1  0
  9 30  1  0
 10 31  1  0
 10 32  1  0
 10 33  1  0
 11 34  1  0
 11 35  1  0
 11 36  1  0
 14 37  1  0
 15 38  1  0
 16 39  1  0
 16 40  1  0
 17 41  1  0
 17 42  1  0
 18 43  1  0
 18 44  1  0
 19 45  1  0
 19 46  1  0
 20 47  1  0
 20 48  1  0
 20 49  1  0
 21 50  1  0
 21 51  1  0
 21 52  1  0
M  CHG  2   1   1   3  -1
M  END
> <Uni-Dock RESULT> 
ENERGY=   -5.406  LOWER_BOUND=    7.372  UPPER_BOUND=    9.062
INTER + INTRA:          -5.406
INTER:                  -5.406
INTRA:                   0.000
UNBOUND:                 0.000

$$$$

     RDKit          3D

 52 49  0  0  0  0  0  0  0  0999 V2000
   46.3027    4.1981   13.7087 Na  0  0  0  0  0 15  0  0  0  0  0  0
   47.1384    6.2780   13.3759 C   0  0  0  0  0  0  0  0  0  0  0  0
   46.5942    7.4076   13.5423 O   0  0  0  0  0  0  0  0  0  0  0  0
   48.3105    6.0016   12.9949 O   0  0  0  0  0  0  0  0  0  0  0  0
   46.2211    5.0754   13.6812 C   0  0  0  0  0  0  0  0  0  0  0  0
   45.7688    4.5650   12.3013 C   0  0  0  0  0  0  0  0  0  0  0  0
   46.9324    3.9971   14.5099 C   0  0  0  0  0  0  0  0  0  0  0  0
   47.3282    4.4999   15.9023 C   0  0  0  0  0  0  0  0  0  0  0  0
   44.6122    3.5648   12.3809 C   0  0  0  0  0  0  0  0  0  0  0  0
   44.1292    3.1647   10.9948 C   0  0  0  0  0  0  0  0  0  0  0  0
   47.9830    3.4001   16.7240 C   0  0  0  0  0  0  0  0  0  0  0  0
   46.9775    5.6756   13.3334 C   0  0  0  0  0  0  0  0  0  0  0  0
   47.9688    5.6969   12.6234 O   0  0  0  0  0  0  0  0  0  0  0  0
   46.2169    4.4506   13.7932 C   0  0  0  0  0  0  0  0  0  0  0  0
   46.4431    6.8212   13.7978 O   0  0  0  0  0  0  0  0  0  0  0  0
   45.6707    3.6911   12.5718 C   0  0  0  0  0  0  0  0  0  0  0  0
   47.1439    3.5466   14.6241 C   0  0  0  0  0  0  0  0  0  0  0  0
   44.5890    4.4782   11.8251 C   0  0  0  0  0  0  0  0  0  0  0  0
   47.5529    4.1875   15.9542 C   0  0  0  0  0  0  0  0  0  0  0  0
   48.4231    3.2501   16.7772 C   0  0  0  0  0  0  0  0  0  0  0  0
   44.0298    3.6811   10.6567 C   0  0  0  0  0  0  0  0  0  0  0  0
   45.3448    5.4343   14.2369 H   0  0  0  0  0  0  0  0  0  0  0  0
   45.4519    5.4154   11.6824 H   0  0  0  0  0  0  0  0  0  0  0  0
   46.6138    4.1008   11.7758 H   0  0  0  0  0  0  0  0  0  0  0  0
   46.2704    3.1327   14.6339 H   0  0  0  0  0  0  0  0  0  0  0  0
   47.8251    3.6342   13.9854 H   0  0  0  0  0  0  0  0  0  0  0  0
   46.4396    4.8625   16.4322 H   0  0  0  0  0  0  0  0  0  0  0  0
   48.0244    5.3418   15.8217 H   0  0  0  0  0  0  0  0  0  0  0  0
   43.7771    4.0046   12.9381 H   0  0  0  0  0  0  0  0  0  0  0  0
   44.9227    2.6615   12.9158 H   0  0  0  0  0  0  0  0  0  0  0  0
   43.3055    2.4481   11.0729 H   0  0  0  0  0  0  0  0  0  0  0  0
   44.9339    2.6962   10.4192 H   0  0  0  0  0  0  0  0  0  0  0  0
   43.7693    4.0355   10.4376 H   0  0  0  0  0  0  0  0  0  0  0  0
   48.8923    3.0349   16.2360 H   0  0  0  0  0  0  0  0  0  0  0  0
   47.3022    2.5538   16.8608 H   0  0  0  0  0  0  0  0  0  0  0  0
   48.2569    3.7786   17.7137 H   0  0  0  0  0  0  0  0  0  0  0  0
   45.3731    4.7643   14.4210 H   0  0  0  0  0  0  0  0  0  0  0  0
   47.0244    7.5194   13.4297 H   0  0  0  0  0  0  0  0  0  0  0  0
   46.4881    3.4508   11.8797 H   0  0  0  0  0  0  0  0  0  0  0  0
   45.2436    2.7360   12.9027 H   0  0  0  0  0  0  0  0  0  0  0  0
   48.0448    3.2981   14.0484 H   0  0  0  0  0  0  0  0  0  0  0  0
   46.6302    2.5999   14.8346 H   0  0  0  0  0  0  0  0  0  0  0  0
   44.9974    5.4215   11.4458 H   0  0  0  0  0  0  0  0  0  0  0  0
   43.7721    4.7297   12.5113 H   0  0  0  0  0  0  0  0  0  0  0  0
   48.1054    5.1167   15.7757 H   0  0  0  0  0  0  0  0  0  0  0  0
   46.6584    4.4466   16.5324 H   0  0  0  0  0  0  0  0  0  0  0  0
   49.3415    2.9943   16.2392 H   0  0  0  0  0  0  0  0  0  0  0  0
   48.7040    3.7257   17.7221 H   0  0  0  0  0  0  0  0  0  0  0  0
   47.8905    2.3224   17.0094 H   0  0  0  0  0  0  0  0  0  0  0  0
   44.8167    3.4382    9.9356 H   0  0  0  0  0  0  0  0  0  0  0  0
   43.2597    4.2598   10.1373 H   0  0  0  0  0  0  0  0  0  0  0  0
   43.5774    2.7455   11.0005 H   0  0  0  0  0  0  0  0  0  0  0  0
  3  2  1  0
  4  2  2  0
  5  2  1  0
  6  5  1  0
  7  5  1  0
  8  7  1  0
  9  6  1  0
 10  9  1  0
 11  8  1  0
 13 12  2  0
 14 12  1  0
 15 12  1  0
 16 14  1  0
 17 14  1  0
 18 16  1  0
 19 17  1  0
 20 19  1  0
 21 18  1  0
  5 22  1  0
  6 23  1  0
  6 24  1  0
  7 25  1  0
  7 26  1  0
  8 27  1  0
  8 28  1  0
  9 29  1  0
  9 30  1  0
 10 31  1  0
 10 32  1  0
 10 33  1  0
 11 34  1  0
 11 35  1  0
 11 36  1  0
 14 37  1  0
 15 38  1  0
 16 39  1  0
 16 40  1  0
 17 41  1  0
 17 42  1  0
 18 43  1  0
 18 44  1  0
 19 45  1  0
 19 46  1  0
 20 47  1  0
 20 48  1  0
 20 49  1  0
 21 50  1  0
 21 51  1  0
 21 52  1  0
M  CHG  2   1   1   3  -1
M  END
> <Uni-Dock RESULT> 
ENERGY=   -5.376  LOWER_BOUND=    3.785  UPPER_BOUND=    4.563
INTER + INTRA:          -5.376
INTER:                  -5.376
INTRA:                   0.000
UNBOUND:                 0.000

$$$$

     RDKit          3D

 52 49  0  0  0  0  0  0  0  0999 V2000
   47.5456    8.3797   21.1456 Na  0  0  0  0  0 15  0  0  0  0  0  0
   47.6233    8.6709   23.3916 C   0  0  0  0  0  0  0  0  0  0  0  0
   46.6827    8.8230   24.2233 O   0  0  0  0  0  0  0  0  0  0  0  0
   48.8695    8.6201   23.5916 O   0  0  0  0  0  0  0  0  0  0  0  0
   47.1639    8.5357   21.9247 C   0  0  0  0  0  0  0  0  0  0  0  0
   47.4301    9.9170   21.2999 C   0  0  0  0  0  0  0  0  0  0  0  0
   47.8904    7.4010   21.1900 C   0  0  0  0  0  0  0  0  0  0  0  0
   47.5738    6.0252   21.7859 C   0  0  0  0  0  0  0  0  0  0  0  0
   46.7667   10.0946   19.9315 C   0  0  0  0  0  0  0  0  0  0  0  0
   46.9682   11.5048   19.3968 C   0  0  0  0  0  0  0  0  0  0  0  0
   48.2617    4.9126   21.0097 C   0  0  0  0  0  0  0  0  0  0  0  0
   47.7185    8.6910   22.7742 C   0  0  0  0  0  0  0  0  0  0  0  0
   48.8118    9.0427   23.1845 O   0  0  0  0  0  0  0  0  0  0  0  0
   47.3501    8.3577   21.3446 C   0  0  0  0  0  0  0  0  0  0  0  0
   46.6787    8.5619   23.6202 O   0  0  0  0  0  0  0  0  0  0  0  0
   47.5719    9.5907   20.4515 C   0  0  0  0  0  0  0  0  0  0  0  0
   48.1991    7.1724   20.8535 C   0  0  0  0  0  0  0  0  0  0  0  0
   46.6030   10.7327   20.7740 C   0  0  0  0  0  0  0  0  0  0  0  0
   47.8647    5.8672   21.5828 C   0  0  0  0  0  0  0  0  0  0  0  0
   48.6794    4.7036   21.0393 C   0  0  0  0  0  0  0  0  0  0  0  0
   46.8091   11.9155   19.8404 C   0  0  0  0  0  0  0  0  0  0  0  0
   46.0841    8.3372   21.9118 H   0  0  0  0  0  0  0  0  0  0  0  0
   47.0566   10.7011   21.9725 H   0  0  0  0  0  0  0  0  0  0  0  0
   48.5110   10.0846   21.2032 H   0  0  0  0  0  0  0  0  0  0  0  0
   47.5905    7.3944   20.1360 H   0  0  0  0  0  0  0  0  0  0  0  0
   48.9752    7.5644   21.2050 H   0  0  0  0  0  0  0  0  0  0  0  0
   46.4909    5.8553   21.7721 H   0  0  0  0  0  0  0  0  0  0  0  0
   47.8967    5.9773   22.8316 H   0  0  0  0  0  0  0  0  0  0  0  0
   45.6925    9.8911   20.0090 H   0  0  0  0  0  0  0  0  0  0  0  0
   47.1827    9.3853   19.2088 H   0  0  0  0  0  0  0  0  0  0  0  0
   46.4899   11.6106   18.4180 H   0  0  0  0  0  0  0  0  0  0  0  0
   48.0328   11.7319   19.2814 H   0  0  0  0  0  0  0  0  0  0  0  0
   46.5289   12.2470   20.0709 H   0  0  0  0  0  0  0  0  0  0  0  0
   49.3493    5.0361   21.0285 H   0  0  0  0  0  0  0  0  0  0  0  0
   47.9345    4.9021   19.9651 H   0  0  0  0  0  0  0  0  0  0  0  0
   48.0225    3.9396   21.4500 H   0  0  0  0  0  0  0  0  0  0  0  0
   46.2904    8.0757   21.3013 H   0  0  0  0  0  0  0  0  0  0  0  0
   47.0528    8.8040   24.4932 H   0  0  0  0  0  0  0  0  0  0  0  0
   48.6040    9.9503   20.5532 H   0  0  0  0  0  0  0  0  0  0  0  0
   47.4378    9.3035   19.4008 H   0  0  0  0  0  0  0  0  0  0  0  0
   49.2667    7.3949   20.9780 H   0  0  0  0  0  0  0  0  0  0  0  0
   48.0281    7.0272   19.7792 H   0  0  0  0  0  0  0  0  0  0  0  0
   46.7417   11.0699   21.8072 H   0  0  0  0  0  0  0  0  0  0  0  0
   45.5692   10.3797   20.6829 H   0  0  0  0  0  0  0  0  0  0  0  0
   48.0648    5.9679   22.6554 H   0  0  0  0  0  0  0  0  0  0  0  0
   46.7980    5.6416   21.4706 H   0  0  0  0  0  0  0  0  0  0  0  0
   49.7519    4.8842   21.1633 H   0  0  0  0  0  0  0  0  0  0  0  0
   48.4261    3.7820   21.5725 H   0  0  0  0  0  0  0  0  0  0  0  0
   48.4777    4.5463   19.9749 H   0  0  0  0  0  0  0  0  0  0  0  0
   47.8256   12.3119   19.9285 H   0  0  0  0  0  0  0  0  0  0  0  0
   46.1083   12.7193   20.0868 H   0  0  0  0  0  0  0  0  0  0  0  0
   46.6415   11.6267   18.7979 H   0  0  0  0  0  0  0  0  0  0  0  0
  3  2  1  0
  4  2  2  0
  5  2  1  0
  6  5  1  0
  7  5  1  0
  8  7  1  0
  9  6  1  0
 10  9  1  0
 11  8  1  0
 13 12  2  0
 14 12  1  0
 15 12  1  0
 16 14  1  0
 17 14  1  0
 18 16  1  0
 19 17  1  0
 20 19  1  0
 21 18  1  0
  5 22  1  0
  6 23  1  0
  6 24  1  0
  7 25  1  0
  7 26  1  0
  8 27  1  0
  8 28  1  0
  9 29  1  0
  9 30  1  0
 10 31  1  0
 10 32  1  0
 10 33  1  0
 11 34  1  0
 11 35  1  0
 11 36  1  0
 14 37  1  0
 15 38  1  0
 16 39  1  0
 16 40  1  0
 17 41  1  0
 17 42  1  0
 18 43  1  0
 18 44  1  0
 19 45  1  0
 19 46  1  0
 20 47  1  0
 20 48  1  0
 20 49  1  0
 21 50  1  0
 21 51  1  0
 21 52  1  0
M  CHG  2   1   1   3  -1
M  END
> <Uni-Dock RESULT> 
ENERGY=   -5.117  LOWER_BOUND=   10.780  UPPER_BOUND=   11.869
INTER + INTRA:          -5.117
INTER:                  -5.117
INTRA:                   0.000
UNBOUND:                 0.000

$$$$
