
     RDKit          3D

 52 49  0  0  0  0  0  0  0  0999 V2000
   48.4425    4.7751   19.5068 Na  0  0  0  0  0 15  0  0  0  0  0  0
   50.1603    5.0883   19.0312 C   0  0  0  0  0  0  0  0  0  0  0  0
   51.1209    4.4342   19.5260 O   0  0  0  0  0  0  0  0  0  0  0  0
   50.1779    6.0078   18.1631 O   0  0  0  0  0  0  0  0  0  0  0  0
   48.7549    4.7261   19.5494 C   0  0  0  0  0  0  0  0  0  0  0  0
   48.4521    3.2495   19.2388 C   0  0  0  0  0  0  0  0  0  0  0  0
   48.6824    4.9708   21.0669 C   0  0  0  0  0  0  0  0  0  0  0  0
   48.9191    6.4221   21.5025 C   0  0  0  0  0  0  0  0  0  0  0  0
   48.4461    2.8875   17.7486 C   0  0  0  0  0  0  0  0  0  0  0  0
   47.3808    3.6195   16.9473 C   0  0  0  0  0  0  0  0  0  0  0  0
   47.8865    7.3979   20.9601 C   0  0  0  0  0  0  0  0  0  0  0  0
   47.5277    5.9942   19.0037 C   0  0  0  0  0  0  0  0  0  0  0  0
   47.8760    7.0918   18.6000 O   0  0  0  0  0  0  0  0  0  0  0  0
   48.4382    4.9423   19.5994 C   0  0  0  0  0  0  0  0  0  0  0  0
   46.2344    5.6266   18.9468 O   0  0  0  0  0  0  0  0  0  0  0  0
   48.4091    3.6503   18.7618 C   0  0  0  0  0  0  0  0  0  0  0  0
   48.0530    4.6480   21.0606 C   0  0  0  0  0  0  0  0  0  0  0  0
   48.9632    3.8517   17.3478 C   0  0  0  0  0  0  0  0  0  0  0  0
   48.1098    5.8563   22.0029 C   0  0  0  0  0  0  0  0  0  0  0  0
   49.4995    6.4587   22.1396 C   0  0  0  0  0  0  0  0  0  0  0  0
   48.9766    2.5469   16.5663 C   0  0  0  0  0  0  0  0  0  0  0  0
   48.0054    5.3525   19.0539 H   0  0  0  0  0  0  0  0  0  0  0  0
   49.1837    2.6041   19.7421 H   0  0  0  0  0  0  0  0  0  0  0  0
   47.4737    2.9888   19.6630 H   0  0  0  0  0  0  0  0  0  0  0  0
   47.6967    4.6553   21.4328 H   0  0  0  0  0  0  0  0  0  0  0  0
   49.4156    4.3375   21.5831 H   0  0  0  0  0  0  0  0  0  0  0  0
   48.8883    6.4595   22.5983 H   0  0  0  0  0  0  0  0  0  0  0  0
   49.9221    6.7516   21.2097 H   0  0  0  0  0  0  0  0  0  0  0  0
   48.2659    1.8092   17.6595 H   0  0  0  0  0  0  0  0  0  0  0  0
   49.4300    3.0745   17.3045 H   0  0  0  0  0  0  0  0  0  0  0  0
   47.5861    4.6924   16.8917 H   0  0  0  0  0  0  0  0  0  0  0  0
   46.3894    3.4777   17.3888 H   0  0  0  0  0  0  0  0  0  0  0  0
   47.3529    3.2358   15.9223 H   0  0  0  0  0  0  0  0  0  0  0  0
   46.8708    7.0749   21.2090 H   0  0  0  0  0  0  0  0  0  0  0  0
   47.9619    7.5002   19.8737 H   0  0  0  0  0  0  0  0  0  0  0  0
   48.0426    8.3898   21.3962 H   0  0  0  0  0  0  0  0  0  0  0  0
   49.4598    5.3401   19.5716 H   0  0  0  0  0  0  0  0  0  0  0  0
   45.7860    6.4013   18.5476 H   0  0  0  0  0  0  0  0  0  0  0  0
   47.3857    3.2595   18.6985 H   0  0  0  0  0  0  0  0  0  0  0  0
   49.0089    2.8829   19.2675 H   0  0  0  0  0  0  0  0  0  0  0  0
   48.7156    3.8673   21.4560 H   0  0  0  0  0  0  0  0  0  0  0  0
   47.0363    4.2359   21.0982 H   0  0  0  0  0  0  0  0  0  0  0  0
   49.9838    4.2480   17.4014 H   0  0  0  0  0  0  0  0  0  0  0  0
   48.3578    4.5838   16.8021 H   0  0  0  0  0  0  0  0  0  0  0  0
   47.7736    5.5323   22.9954 H   0  0  0  0  0  0  0  0  0  0  0  0
   47.4070    6.6304   21.6753 H   0  0  0  0  0  0  0  0  0  0  0  0
   50.2308    5.6988   22.4324 H   0  0  0  0  0  0  0  0  0  0  0  0
   49.4960    7.2390   22.9076 H   0  0  0  0  0  0  0  0  0  0  0  0
   49.8316    6.9186   21.2045 H   0  0  0  0  0  0  0  0  0  0  0  0
   49.3753    2.7118   15.5604 H   0  0  0  0  0  0  0  0  0  0  0  0
   49.6038    1.7989   17.0616 H   0  0  0  0  0  0  0  0  0  0  0  0
   47.9658    2.1382   16.4684 H   0  0  0  0  0  0  0  0  0  0  0  0
  3  2  1  0
  4  2  2  0
  5  2  1  0
  6  5  1  0
  7  5  1  0
  8  7  1  0
  9  6  1  0
 10  9  1  0
 11  8  1  0
 13 12  2  0
 14 12  1  0
 15 12  1  0
 16 14  1  0
 17 14  1  0
 18 16  1  0
 19 17  1  0
 20 19  1  0
 21 18  1  0
  5 22  1  0
  6 23  1  0
  6 24  1  0
  7 25  1  0
  7 26  1  0
  8 27  1  0
  8 28  1  0
  9 29  1  0
  9 30  1  0
 10 31  1  0
 10 32  1  0
 10 33  1  0
 11 34  1  0
 11 35  1  0
 11 36  1  0
 14 37  1  0
 15 38  1  0
 16 39  1  0
 16 40  1  0
 17 41  1  0
 17 42  1  0
 18 43  1  0
 18 44  1  0
 19 45  1  0
 19 46  1  0
 20 47  1  0
 20 48  1  0
 20 49  1  0
 21 50  1  0
 21 51  1  0
 21 52  1  0
M  CHG  2   1   1   3  -1
M  END
> <Uni-Dock RESULT> 
ENERGY=   -4.412  LOWER_BOUND=    0.000  UPPER_BOUND=    0.000
INTER + INTRA:          -4.412
INTER:                  -4.412
INTRA:                   0.000
UNBOUND:                 0.000

$$$$

     RDKit          3D

 52 49  0  0  0  0  0  0  0  0999 V2000
   45.4446    5.9757   11.7263 Na  0  0  0  0  0 15  0  0  0  0  0  0
   46.2122    5.0272   13.0628 C   0  0  0  0  0  0  0  0  0  0  0  0
   47.3006    4.4065   12.9025 O   0  0  0  0  0  0  0  0  0  0  0  0
   45.4921    5.1313   14.0972 O   0  0  0  0  0  0  0  0  0  0  0  0
   45.6680    5.7720   11.8283 C   0  0  0  0  0  0  0  0  0  0  0  0
   46.6851    6.8333   11.3725 C   0  0  0  0  0  0  0  0  0  0  0  0
   45.4074    4.7693   10.6905 C   0  0  0  0  0  0  0  0  0  0  0  0
   44.3699    3.6848   11.0059 C   0  0  0  0  0  0  0  0  0  0  0  0
   46.9938    7.9230   12.4065 C   0  0  0  0  0  0  0  0  0  0  0  0
   45.7849    8.7643   12.7853 C   0  0  0  0  0  0  0  0  0  0  0  0
   42.9802    4.2337   11.2882 C   0  0  0  0  0  0  0  0  0  0  0  0
   43.9275    6.3138   12.1264 C   0  0  0  0  0  0  0  0  0  0  0  0
   43.2525    5.8380   13.0249 O   0  0  0  0  0  0  0  0  0  0  0  0
   45.3059    5.8448   11.7137 C   0  0  0  0  0  0  0  0  0  0  0  0
   43.4615    7.3444   11.3973 O   0  0  0  0  0  0  0  0  0  0  0  0
   46.3427    6.9719   11.8761 C   0  0  0  0  0  0  0  0  0  0  0  0
   45.2965    5.3235   10.2651 C   0  0  0  0  0  0  0  0  0  0  0  0
   46.5262    7.3985   13.3360 C   0  0  0  0  0  0  0  0  0  0  0  0
   44.3422    4.1523   10.0029 C   0  0  0  0  0  0  0  0  0  0  0  0
   44.6744    2.9033   10.8043 C   0  0  0  0  0  0  0  0  0  0  0  0
   47.5976    8.4696   13.4704 C   0  0  0  0  0  0  0  0  0  0  0  0
   44.7267    6.2708   12.0828 H   0  0  0  0  0  0  0  0  0  0  0  0
   47.6312    6.3498   11.0961 H   0  0  0  0  0  0  0  0  0  0  0  0
   46.3124    7.3165   10.4600 H   0  0  0  0  0  0  0  0  0  0  0  0
   45.0753    5.3183    9.7997 H   0  0  0  0  0  0  0  0  0  0  0  0
   46.3444    4.2713   10.4092 H   0  0  0  0  0  0  0  0  0  0  0  0
   44.3069    3.0106   10.1429 H   0  0  0  0  0  0  0  0  0  0  0  0
   44.7000    3.0731   11.8528 H   0  0  0  0  0  0  0  0  0  0  0  0
   47.7589    8.5868   11.9856 H   0  0  0  0  0  0  0  0  0  0  0  0
   47.4296    7.4822   13.3099 H   0  0  0  0  0  0  0  0  0  0  0  0
   45.0409    8.1764   13.3303 H   0  0  0  0  0  0  0  0  0  0  0  0
   45.3082    9.1908   11.8972 H   0  0  0  0  0  0  0  0  0  0  0  0
   46.0918    9.5908   13.4345 H   0  0  0  0  0  0  0  0  0  0  0  0
   42.6380    4.8776   10.4719 H   0  0  0  0  0  0  0  0  0  0  0  0
   42.9566    4.8095   12.2179 H   0  0  0  0  0  0  0  0  0  0  0  0
   42.2659    3.4106   11.3922 H   0  0  0  0  0  0  0  0  0  0  0  0
   45.5882    5.0263   12.3869 H   0  0  0  0  0  0  0  0  0  0  0  0
   42.5769    7.5233   11.7796 H   0  0  0  0  0  0  0  0  0  0  0  0
   46.0548    7.8445   11.2762 H   0  0  0  0  0  0  0  0  0  0  0  0
   47.3094    6.6271   11.4873 H   0  0  0  0  0  0  0  0  0  0  0  0
   46.3124    5.0128    9.9891 H   0  0  0  0  0  0  0  0  0  0  0  0
   45.0284    6.1393    9.5813 H   0  0  0  0  0  0  0  0  0  0  0  0
   46.8080    6.5312   13.9441 H   0  0  0  0  0  0  0  0  0  0  0  0
   45.5852    7.7877   13.7402 H   0  0  0  0  0  0  0  0  0  0  0  0
   44.3919    3.9027    8.9360 H   0  0  0  0  0  0  0  0  0  0  0  0
   43.3069    4.4500   10.2033 H   0  0  0  0  0  0  0  0  0  0  0  0
   45.7156    2.6024   10.6505 H   0  0  0  0  0  0  0  0  0  0  0  0
   44.0324    2.0742   10.4896 H   0  0  0  0  0  0  0  0  0  0  0  0
   44.5119    3.0579   11.8747 H   0  0  0  0  0  0  0  0  0  0  0  0
   47.7134    8.7602   14.5192 H   0  0  0  0  0  0  0  0  0  0  0  0
   48.5649    8.1048   13.1105 H   0  0  0  0  0  0  0  0  0  0  0  0
   47.3321    9.3637   12.8973 H   0  0  0  0  0  0  0  0  0  0  0  0
  3  2  1  0
  4  2  2  0
  5  2  1  0
  6  5  1  0
  7  5  1  0
  8  7  1  0
  9  6  1  0
 10  9  1  0
 11  8  1  0
 13 12  2  0
 14 12  1  0
 15 12  1  0
 16 14  1  0
 17 14  1  0
 18 16  1  0
 19 17  1  0
 20 19  1  0
 21 18  1  0
  5 22  1  0
  6 23  1  0
  6 24  1  0
  7 25  1  0
  7 26  1  0
  8 27  1  0
  8 28  1  0
  9 29  1  0
  9 30  1  0
 10 31  1  0
 10 32  1  0
 10 33  1  0
 11 34  1  0
 11 35  1  0
 11 36  1  0
 14 37  1  0
 15 38  1  0
 16 39  1  0
 16 40  1  0
 17 41  1  0
 17 42  1  0
 18 43  1  0
 18 44  1  0
 19 45  1  0
 19 46  1  0
 20 47  1  0
 20 48  1  0
 20 49  1  0
 21 50  1  0
 21 51  1  0
 21 52  1  0
M  CHG  2   1   1   3  -1
M  END
> <Uni-Dock RESULT> 
ENERGY=   -4.300  LOWER_BOUND=    6.967  UPPER_BOUND=    9.007
INTER + INTRA:          -4.300
INTER:                  -4.300
INTRA:                   0.000
UNBOUND:                 0.000

$$$$

     RDKit          3D

 52 49  0  0  0  0  0  0  0  0999 V2000
   47.9285   11.2532   19.4830 Na  0  0  0  0  0 15  0  0  0  0  0  0
   46.5210   12.0001   20.3413 C   0  0  0  0  0  0  0  0  0  0  0  0
   45.3306   11.8102   19.9641 O   0  0  0  0  0  0  0  0  0  0  0  0
   46.9556   12.6744   21.3189 O   0  0  0  0  0  0  0  0  0  0  0  0
   47.6164   11.3180   19.4988 C   0  0  0  0  0  0  0  0  0  0  0  0
   47.4145    9.7925   19.5223 C   0  0  0  0  0  0  0  0  0  0  0  0
   47.5548   11.8353   18.0508 C   0  0  0  0  0  0  0  0  0  0  0  0
   47.7910   13.3419   17.8890 C   0  0  0  0  0  0  0  0  0  0  0  0
   47.5029    9.1472   20.9107 C   0  0  0  0  0  0  0  0  0  0  0  0
   48.8614    9.3116   21.5743 C   0  0  0  0  0  0  0  0  0  0  0  0
   49.1693   13.7955   18.3442 C   0  0  0  0  0  0  0  0  0  0  0  0
   49.2790   11.9777   19.9598 C   0  0  0  0  0  0  0  0  0  0  0  0
   49.4056   13.0200   20.5817 O   0  0  0  0  0  0  0  0  0  0  0  0
   47.9788   11.4254   19.4169 C   0  0  0  0  0  0  0  0  0  0  0  0
   50.3506   11.2077   19.6960 O   0  0  0  0  0  0  0  0  0  0  0  0
   47.6647   10.0496   20.0335 C   0  0  0  0  0  0  0  0  0  0  0  0
   48.0220   11.3321   17.8808 C   0  0  0  0  0  0  0  0  0  0  0  0
   47.4257   10.1216   21.5450 C   0  0  0  0  0  0  0  0  0  0  0  0
   48.2658   12.6613   17.1563 C   0  0  0  0  0  0  0  0  0  0  0  0
   47.1775   13.6959   17.3967 C   0  0  0  0  0  0  0  0  0  0  0  0
   47.0598    8.7594   22.1143 C   0  0  0  0  0  0  0  0  0  0  0  0
   48.6021   11.5507   19.9158 H   0  0  0  0  0  0  0  0  0  0  0  0
   46.4374    9.5382   19.0913 H   0  0  0  0  0  0  0  0  0  0  0  0
   48.1649    9.3229   18.8732 H   0  0  0  0  0  0  0  0  0  0  0  0
   48.3008   11.3006   17.4485 H   0  0  0  0  0  0  0  0  0  0  0  0
   46.5787   11.5953   17.6094 H   0  0  0  0  0  0  0  0  0  0  0  0
   47.6770   13.5938   16.8275 H   0  0  0  0  0  0  0  0  0  0  0  0
   47.0236   13.9102   18.4260 H   0  0  0  0  0  0  0  0  0  0  0  0
   47.2980    8.0750   20.8031 H   0  0  0  0  0  0  0  0  0  0  0  0
   46.7240    9.5465   21.5696 H   0  0  0  0  0  0  0  0  0  0  0  0
   49.0617   10.3569   21.8263 H   0  0  0  0  0  0  0  0  0  0  0  0
   49.6638    8.9512   20.9230 H   0  0  0  0  0  0  0  0  0  0  0  0
   48.8963    8.7357   22.5048 H   0  0  0  0  0  0  0  0  0  0  0  0
   49.9569   13.2200   17.8479 H   0  0  0  0  0  0  0  0  0  0  0  0
   49.2905   13.6891   19.4260 H   0  0  0  0  0  0  0  0  0  0  0  0
   49.3163   14.8522   18.0985 H   0  0  0  0  0  0  0  0  0  0  0  0
   47.1808   12.1178   19.7112 H   0  0  0  0  0  0  0  0  0  0  0  0
   51.0974   11.6947   20.1033 H   0  0  0  0  0  0  0  0  0  0  0  0
   48.4798    9.3442   19.8280 H   0  0  0  0  0  0  0  0  0  0  0  0
   46.7656    9.6404   19.5554 H   0  0  0  0  0  0  0  0  0  0  0  0
   47.0758   10.9081   17.5204 H   0  0  0  0  0  0  0  0  0  0  0  0
   48.8090   10.6301   17.5759 H   0  0  0  0  0  0  0  0  0  0  0  0
   46.6166   10.8292   21.7602 H   0  0  0  0  0  0  0  0  0  0  0  0
   48.3231   10.4881   22.0556 H   0  0  0  0  0  0  0  0  0  0  0  0
   48.3199   12.4593   16.0796 H   0  0  0  0  0  0  0  0  0  0  0  0
   49.2372   13.0802   17.4419 H   0  0  0  0  0  0  0  0  0  0  0  0
   46.1898   13.2921   17.1527 H   0  0  0  0  0  0  0  0  0  0  0  0
   47.3493   14.5743   16.7662 H   0  0  0  0  0  0  0  0  0  0  0  0
   47.1674   14.0339   18.4368 H   0  0  0  0  0  0  0  0  0  0  0  0
   46.8933    8.8322   23.1936 H   0  0  0  0  0  0  0  0  0  0  0  0
   46.1438    8.3750   21.6546 H   0  0  0  0  0  0  0  0  0  0  0  0
   47.8617    8.0344   21.9422 H   0  0  0  0  0  0  0  0  0  0  0  0
  3  2  1  0
  4  2  2  0
  5  2  1  0
  6  5  1  0
  7  5  1  0
  8  7  1  0
  9  6  1  0
 10  9  1  0
 11  8  1  0
 13 12  2  0
 14 12  1  0
 15 12  1  0
 16 14  1  0
 17 14  1  0
 18 16  1  0
 19 17  1  0
 20 19  1  0
 21 18  1  0
  5 22  1  0
  6 23  1  0
  6 24  1  0
  7 25  1  0
  7 26  1  0
  8 27  1  0
  8 28  1  0
  9 29  1  0
  9 30  1  0
 10 31  1  0
 10 32  1  0
 10 33  1  0
 11 34  1  0
 11 35  1  0
 11 36  1  0
 14 37  1  0
 15 38  1  0
 16 39  1  0
 16 40  1  0
 17 41  1  0
 17 42  1  0
 18 43  1  0
 18 44  1  0
 19 45  1  0
 19 46  1  0
 20 47  1  0
 20 48  1  0
 20 49  1  0
 21 50  1  0
 21 51  1  0
 21 52  1  0
M  CHG  2   1   1   3  -1
M  END
> <Uni-Dock RESULT> 
ENERGY=   -4.154  LOWER_BOUND=    5.378  UPPER_BOUND=    7.478
INTER + INTRA:          -4.154
INTER:                  -4.154
INTRA:                   0.000
UNBOUND:                 0.000

$$$$

     RDKit          3D

 52 49  0  0  0  0  0  0  0  0999 V2000
   47.5526    9.6917   20.7124 Na  0  0  0  0  0 15  0  0  0  0  0  0
   49.0294   10.2699   21.5842 C   0  0  0  0  0  0  0  0  0  0  0  0
   48.9571   10.8998   22.6767 O   0  0  0  0  0  0  0  0  0  0  0  0
   50.0504    9.9191   20.9257 O   0  0  0  0  0  0  0  0  0  0  0  0
   47.6871    9.8613   20.9468 C   0  0  0  0  0  0  0  0  0  0  0  0
   46.9173    8.9365   21.9063 C   0  0  0  0  0  0  0  0  0  0  0  0
   46.8526   11.1183   20.6439 C   0  0  0  0  0  0  0  0  0  0  0  0
   47.4937   12.1008   19.6563 C   0  0  0  0  0  0  0  0  0  0  0  0
   47.6268    7.6206   22.2485 C   0  0  0  0  0  0  0  0  0  0  0  0
   47.8635    6.7240   21.0432 C   0  0  0  0  0  0  0  0  0  0  0  0
   47.7213   11.5132   18.2723 C   0  0  0  0  0  0  0  0  0  0  0  0
   47.9547    9.2803   19.2140 C   0  0  0  0  0  0  0  0  0  0  0  0
   48.9850    9.5245   18.6075 O   0  0  0  0  0  0  0  0  0  0  0  0
   47.5820    9.8231   20.5766 C   0  0  0  0  0  0  0  0  0  0  0  0
   47.0250    8.4684   18.6778 O   0  0  0  0  0  0  0  0  0  0  0  0
   47.3921    8.6805   21.5915 C   0  0  0  0  0  0  0  0  0  0  0  0
   46.3114   10.6885   20.4930 C   0  0  0  0  0  0  0  0  0  0  0  0
   48.6857    7.9021   21.8520 C   0  0  0  0  0  0  0  0  0  0  0  0
   46.4102   11.8979   19.5555 C   0  0  0  0  0  0  0  0  0  0  0  0
   47.4725   12.9047   19.9684 C   0  0  0  0  0  0  0  0  0  0  0  0
   48.4804    6.8203   22.9012 C   0  0  0  0  0  0  0  0  0  0  0  0
   47.8710    9.3246   20.0099 H   0  0  0  0  0  0  0  0  0  0  0  0
   46.7081    9.4638   22.8462 H   0  0  0  0  0  0  0  0  0  0  0  0
   45.9399    8.6993   21.4664 H   0  0  0  0  0  0  0  0  0  0  0  0
   45.8772   10.8116   20.2442 H   0  0  0  0  0  0  0  0  0  0  0  0
   46.6428   11.6609   21.5749 H   0  0  0  0  0  0  0  0  0  0  0  0
   46.8306   12.9691   19.5587 H   0  0  0  0  0  0  0  0  0  0  0  0
   48.4424   12.4791   20.0530 H   0  0  0  0  0  0  0  0  0  0  0  0
   47.0056    7.0747   22.9690 H   0  0  0  0  0  0  0  0  0  0  0  0
   48.5808    7.8183   22.7496 H   0  0  0  0  0  0  0  0  0  0  0  0
   48.5845    7.1654   20.3493 H   0  0  0  0  0  0  0  0  0  0  0  0
   46.9304    6.5368   20.5025 H   0  0  0  0  0  0  0  0  0  0  0  0
   48.2663    5.7589   21.3672 H   0  0  0  0  0  0  0  0  0  0  0  0
   46.7952   11.0963   17.8645 H   0  0  0  0  0  0  0  0  0  0  0  0
   48.4790   10.7244   18.2901 H   0  0  0  0  0  0  0  0  0  0  0  0
   48.0723   12.2918   17.5874 H   0  0  0  0  0  0  0  0  0  0  0  0
   48.4169   10.4453   20.9206 H   0  0  0  0  0  0  0  0  0  0  0  0
   47.4080    8.2091   17.8137 H   0  0  0  0  0  0  0  0  0  0  0  0
   46.6149    7.9875   21.2451 H   0  0  0  0  0  0  0  0  0  0  0  0
   47.0386    9.1012   22.5415 H   0  0  0  0  0  0  0  0  0  0  0  0
   46.0552   11.0477   21.4981 H   0  0  0  0  0  0  0  0  0  0  0  0
   45.4658   10.0713   20.1627 H   0  0  0  0  0  0  0  0  0  0  0  0
   49.4700    8.5879   22.1928 H   0  0  0  0  0  0  0  0  0  0  0  0
   49.0415    7.4342   20.9274 H   0  0  0  0  0  0  0  0  0  0  0  0
   45.4375   12.4045   19.5470 H   0  0  0  0  0  0  0  0  0  0  0  0
   46.5978   11.5703   18.5269 H   0  0  0  0  0  0  0  0  0  0  0  0
   47.3304   13.2237   21.0057 H   0  0  0  0  0  0  0  0  0  0  0  0
   47.4156   13.7926   19.3303 H   0  0  0  0  0  0  0  0  0  0  0  0
   48.4796   12.4903   19.8670 H   0  0  0  0  0  0  0  0  0  0  0  0
   49.4147    6.2767   23.0727 H   0  0  0  0  0  0  0  0  0  0  0  0
   48.1598    7.2533   23.8541 H   0  0  0  0  0  0  0  0  0  0  0  0
   47.7223    6.0997   22.5781 H   0  0  0  0  0  0  0  0  0  0  0  0
  3  2  1  0
  4  2  2  0
  5  2  1  0
  6  5  1  0
  7  5  1  0
  8  7  1  0
  9  6  1  0
 10  9  1  0
 11  8  1  0
 13 12  2  0
 14 12  1  0
 15 12  1  0
 16 14  1  0
 17 14  1  0
 18 16  1  0
 19 17  1  0
 20 19  1  0
 21 18  1  0
  5 22  1  0
  6 23  1  0
  6 24  1  0
  7 25  1  0
  7 26  1  0
  8 27  1  0
  8 28  1  0
  9 29  1  0
  9 30  1  0
 10 31  1  0
 10 32  1  0
 10 33  1  0
 11 34  1  0
 11 35  1  0
 11 36  1  0
 14 37  1  0
 15 38  1  0
 16 39  1  0
 16 40  1  0
 17 41  1  0
 17 42  1  0
 18 43  1  0
 18 44  1  0
 19 45  1  0
 19 46  1  0
 20 47  1  0
 20 48  1  0
 20 49  1  0
 21 50  1  0
 21 51  1  0
 21 52  1  0
M  CHG  2   1   1   3  -1
M  END
> <Uni-Dock RESULT> 
ENERGY=   -4.106  LOWER_BOUND=    3.592  UPPER_BOUND=    5.785
INTER + INTRA:          -4.106
INTER:                  -4.106
INTRA:                   0.000
UNBOUND:                 0.000

$$$$

     RDKit          3D

 52 49  0  0  0  0  0  0  0  0999 V2000
   47.6075   10.5863   20.5439 Na  0  0  0  0  0 15  0  0  0  0  0  0
   48.2423    9.7884   19.0487 C   0  0  0  0  0  0  0  0  0  0  0  0
   47.4970    9.1160   18.2820 O   0  0  0  0  0  0  0  0  0  0  0  0
   49.4761   10.0464   18.9459 O   0  0  0  0  0  0  0  0  0  0  0  0
   47.5660   10.3896   20.2961 C   0  0  0  0  0  0  0  0  0  0  0  0
   46.4431   11.3499   19.8654 C   0  0  0  0  0  0  0  0  0  0  0  0
   46.9882    9.2608   21.1679 C   0  0  0  0  0  0  0  0  0  0  0  0
   48.0203    8.2605   21.7026 C   0  0  0  0  0  0  0  0  0  0  0  0
   46.9010   12.5503   19.0279 C   0  0  0  0  0  0  0  0  0  0  0  0
   47.8632   13.4731   19.7597 C   0  0  0  0  0  0  0  0  0  0  0  0
   49.0597    8.8873   22.6187 C   0  0  0  0  0  0  0  0  0  0  0  0
   48.8428   11.0233   21.4708 C   0  0  0  0  0  0  0  0  0  0  0  0
   50.0132   10.6876   21.3883 O   0  0  0  0  0  0  0  0  0  0  0  0
   47.7024   10.4596   20.6512 C   0  0  0  0  0  0  0  0  0  0  0  0
   48.4661   11.9689   22.3510 O   0  0  0  0  0  0  0  0  0  0  0  0
   47.0281   11.5624   19.8140 C   0  0  0  0  0  0  0  0  0  0  0  0
   46.6709    9.7605   21.5553 C   0  0  0  0  0  0  0  0  0  0  0  0
   47.9679   12.1632   18.7638 C   0  0  0  0  0  0  0  0  0  0  0  0
   47.2217    8.5985   22.3906 C   0  0  0  0  0  0  0  0  0  0  0  0
   47.7648    7.4500   21.5548 C   0  0  0  0  0  0  0  0  0  0  0  0
   47.2569   13.2059   17.9149 C   0  0  0  0  0  0  0  0  0  0  0  0
   48.3029   10.9481   20.8832 H   0  0  0  0  0  0  0  0  0  0  0  0
   45.6846   10.8037   19.2896 H   0  0  0  0  0  0  0  0  0  0  0  0
   45.9323   11.7266   20.7611 H   0  0  0  0  0  0  0  0  0  0  0  0
   46.4600    9.7041   22.0222 H   0  0  0  0  0  0  0  0  0  0  0  0
   46.2335    8.7000   20.6013 H   0  0  0  0  0  0  0  0  0  0  0  0
   47.4856    7.4854   22.2653 H   0  0  0  0  0  0  0  0  0  0  0  0
   48.5240    7.7497   20.8745 H   0  0  0  0  0  0  0  0  0  0  0  0
   46.0130   13.1294   18.7464 H   0  0  0  0  0  0  0  0  0  0  0  0
   47.3596   12.2124   18.0921 H   0  0  0  0  0  0  0  0  0  0  0  0
   48.8228   12.9840   19.9498 H   0  0  0  0  0  0  0  0  0  0  0  0
   47.4441   13.8000   20.7165 H   0  0  0  0  0  0  0  0  0  0  0  0
   48.0614   14.3639   19.1549 H   0  0  0  0  0  0  0  0  0  0  0  0
   48.5833    9.4343   23.4383 H   0  0  0  0  0  0  0  0  0  0  0  0
   49.7121    9.5762   22.0744 H   0  0  0  0  0  0  0  0  0  0  0  0
   49.6935    8.1085   23.0549 H   0  0  0  0  0  0  0  0  0  0  0  0
   48.1292    9.7235   19.9593 H   0  0  0  0  0  0  0  0  0  0  0  0
   49.3016   12.2244   22.7952 H   0  0  0  0  0  0  0  0  0  0  0  0
   46.6540   12.3617   20.4663 H   0  0  0  0  0  0  0  0  0  0  0  0
   46.1548   11.1389   19.3018 H   0  0  0  0  0  0  0  0  0  0  0  0
   45.8475    9.3832   20.9351 H   0  0  0  0  0  0  0  0  0  0  0  0
   46.2272   10.4921   22.2429 H   0  0  0  0  0  0  0  0  0  0  0  0
   48.3515   11.3705   18.1112 H   0  0  0  0  0  0  0  0  0  0  0  0
   48.8312   12.6319   19.2489 H   0  0  0  0  0  0  0  0  0  0  0  0
   46.4098    8.2149   23.0204 H   0  0  0  0  0  0  0  0  0  0  0  0
   48.0016    8.9539   23.0732 H   0  0  0  0  0  0  0  0  0  0  0  0
   47.0169    7.0970   20.8377 H   0  0  0  0  0  0  0  0  0  0  0  0
   48.0354    6.6100   22.2028 H   0  0  0  0  0  0  0  0  0  0  0  0
   48.6629    7.7437   21.0040 H   0  0  0  0  0  0  0  0  0  0  0  0
   47.9442   13.6223   17.1719 H   0  0  0  0  0  0  0  0  0  0  0  0
   46.4074   12.7661   17.3827 H   0  0  0  0  0  0  0  0  0  0  0  0
   46.8862   14.0291   18.5341 H   0  0  0  0  0  0  0  0  0  0  0  0
  3  2  1  0
  4  2  2  0
  5  2  1  0
  6  5  1  0
  7  5  1  0
  8  7  1  0
  9  6  1  0
 10  9  1  0
 11  8  1  0
 13 12  2  0
 14 12  1  0
 15 12  1  0
 16 14  1  0
 17 14  1  0
 18 16  1  0
 19 17  1  0
 20 19  1  0
 21 18  1  0
  5 22  1  0
  6 23  1  0
  6 24  1  0
  7 25  1  0
  7 26  1  0
  8 27  1  0
  8 28  1  0
  9 29  1  0
  9 30  1  0
 10 31  1  0
 10 32  1  0
 10 33  1  0
 11 34  1  0
 11 35  1  0
 11 36  1  0
 14 37  1  0
 15 38  1  0
 16 39  1  0
 16 40  1  0
 17 41  1  0
 17 42  1  0
 18 43  1  0
 18 44  1  0
 19 45  1  0
 19 46  1  0
 20 47  1  0
 20 48  1  0
 20 49  1  0
 21 50  1  0
 21 51  1  0
 21 52  1  0
M  CHG  2   1   1   3  -1
M  END
> <Uni-Dock RESULT> 
ENERGY=   -4.073  LOWER_BOUND=    4.257  UPPER_BOUND=    6.540
INTER + INTRA:          -4.073
INTER:                  -4.073
INTRA:                   0.000
UNBOUND:                 0.000

$$$$

     RDKit          3D

 52 49  0  0  0  0  0  0  0  0999 V2000
   47.6068   10.5940   20.5305 Na  0  0  0  0  0 15  0  0  0  0  0  0
   48.2371    9.7965   19.0332 C   0  0  0  0  0  0  0  0  0  0  0  0
   47.4889    9.1266   18.2670 O   0  0  0  0  0  0  0  0  0  0  0  0
   49.4712   10.0517   18.9286 O   0  0  0  0  0  0  0  0  0  0  0  0
   47.5643   10.3977   20.2825 C   0  0  0  0  0  0  0  0  0  0  0  0
   46.4429   11.3611   19.8550 C   0  0  0  0  0  0  0  0  0  0  0  0
   46.9855    9.2692   21.1541 C   0  0  0  0  0  0  0  0  0  0  0  0
   48.0163    8.2659   21.6857 C   0  0  0  0  0  0  0  0  0  0  0  0
   46.9021   12.5614   19.0181 C   0  0  0  0  0  0  0  0  0  0  0  0
   47.8677   13.4811   19.7492 C   0  0  0  0  0  0  0  0  0  0  0  0
   49.0587    8.8893   22.6007 C   0  0  0  0  0  0  0  0  0  0  0  0
   48.8448   11.0270   21.4557 C   0  0  0  0  0  0  0  0  0  0  0  0
   50.0142   10.6888   21.3708 O   0  0  0  0  0  0  0  0  0  0  0  0
   47.7015   10.4670   20.6374 C   0  0  0  0  0  0  0  0  0  0  0  0
   48.4718   11.9725   22.3377 O   0  0  0  0  0  0  0  0  0  0  0  0
   47.0283   11.5723   19.8028 C   0  0  0  0  0  0  0  0  0  0  0  0
   46.6700    9.7692   21.5426 C   0  0  0  0  0  0  0  0  0  0  0  0
   47.9676   12.1722   18.7516 C   0  0  0  0  0  0  0  0  0  0  0  0
   47.2197    8.6049   22.3755 C   0  0  0  0  0  0  0  0  0  0  0  0
   47.7586    7.4561   21.5374 C   0  0  0  0  0  0  0  0  0  0  0  0
   47.2575   13.2175   17.9052 C   0  0  0  0  0  0  0  0  0  0  0  0
   48.3036   10.9538   20.8690 H   0  0  0  0  0  0  0  0  0  0  0  0
   45.6822   10.8173   19.2799 H   0  0  0  0  0  0  0  0  0  0  0  0
   45.9345   11.7379   20.7520 H   0  0  0  0  0  0  0  0  0  0  0  0
   46.4599    9.7127   22.0097 H   0  0  0  0  0  0  0  0  0  0  0  0
   46.2285    8.7108   20.5881 H   0  0  0  0  0  0  0  0  0  0  0  0
   47.4808    7.4914   22.2485 H   0  0  0  0  0  0  0  0  0  0  0  0
   48.5173    7.7549   20.8561 H   0  0  0  0  0  0  0  0  0  0  0  0
   46.0149   13.1429   18.7388 H   0  0  0  0  0  0  0  0  0  0  0  0
   47.3582   12.2236   18.0810 H   0  0  0  0  0  0  0  0  0  0  0  0
   48.8266   12.9896   19.9371 H   0  0  0  0  0  0  0  0  0  0  0  0
   47.4511   13.8079   20.7071 H   0  0  0  0  0  0  0  0  0  0  0  0
   48.0669   14.3722   19.1451 H   0  0  0  0  0  0  0  0  0  0  0  0
   48.5850    9.4364   23.4218 H   0  0  0  0  0  0  0  0  0  0  0  0
   49.7117    9.5773   22.0561 H   0  0  0  0  0  0  0  0  0  0  0  0
   49.6915    8.1085   23.0349 H   0  0  0  0  0  0  0  0  0  0  0  0
   48.1254    9.7307   19.9439 H   0  0  0  0  0  0  0  0  0  0  0  0
   49.3086   12.2256   22.7807 H   0  0  0  0  0  0  0  0  0  0  0  0
   46.6572   12.3717   20.4566 H   0  0  0  0  0  0  0  0  0  0  0  0
   46.1531   11.1514   19.2916 H   0  0  0  0  0  0  0  0  0  0  0  0
   45.8447    9.3945   20.9234 H   0  0  0  0  0  0  0  0  0  0  0  0
   46.2292   10.5010   22.2318 H   0  0  0  0  0  0  0  0  0  0  0  0
   48.3482   11.3793   18.0974 H   0  0  0  0  0  0  0  0  0  0  0  0
   48.8329   12.6384   19.2357 H   0  0  0  0  0  0  0  0  0  0  0  0
   46.4080    8.2225   23.0064 H   0  0  0  0  0  0  0  0  0  0  0  0
   48.0016    8.9578   23.0571 H   0  0  0  0  0  0  0  0  0  0  0  0
   47.0087    7.1058   20.8212 H   0  0  0  0  0  0  0  0  0  0  0  0
   48.0284    6.6148   22.1839 H   0  0  0  0  0  0  0  0  0  0  0  0
   48.6564    7.7484   20.9854 H   0  0  0  0  0  0  0  0  0  0  0  0
   47.9445   13.6332   17.1615 H   0  0  0  0  0  0  0  0  0  0  0  0
   46.4061   12.7803   17.3739 H   0  0  0  0  0  0  0  0  0  0  0  0
   46.8898   14.0408   18.5260 H   0  0  0  0  0  0  0  0  0  0  0  0
  3  2  1  0
  4  2  2  0
  5  2  1  0
  6  5  1  0
  7  5  1  0
  8  7  1  0
  9  6  1  0
 10  9  1  0
 11  8  1  0
 13 12  2  0
 14 12  1  0
 15 12  1  0
 16 14  1  0
 17 14  1  0
 18 16  1  0
 19 17  1  0
 20 19  1  0
 21 18  1  0
  5 22  1  0
  6 23  1  0
  6 24  1  0
  7 25  1  0
  7 26  1  0
  8 27  1  0
  8 28  1  0
  9 29  1  0
  9 30  1  0
 10 31  1  0
 10 32  1  0
 10 33  1  0
 11 34  1  0
 11 35  1  0
 11 36  1  0
 14 37  1  0
 15 38  1  0
 16 39  1  0
 16 40  1  0
 17 41  1  0
 17 42  1  0
 18 43  1  0
 18 44  1  0
 19 45  1  0
 19 46  1  0
 20 47  1  0
 20 48  1  0
 20 49  1  0
 21 50  1  0
 21 51  1  0
 21 52  1  0
M  CHG  2   1   1   3  -1
M  END
> <Uni-Dock RESULT> 
ENERGY=   -4.073  LOWER_BOUND=    4.257  UPPER_BOUND=    6.546
INTER + INTRA:          -4.073
INTER:                  -4.073
INTRA:                   0.000
UNBOUND:                 0.000

$$$$

     RDKit          3D

 52 49  0  0  0  0  0  0  0  0999 V2000
   48.1383    5.4777   18.6519 Na  0  0  0  0  0 15  0  0  0  0  0  0
   48.9937    6.4856   17.4159 C   0  0  0  0  0  0  0  0  0  0  0  0
   48.3678    7.1164   16.5182 O   0  0  0  0  0  0  0  0  0  0  0  0
   50.2366    6.4347   17.6432 O   0  0  0  0  0  0  0  0  0  0  0  0
   48.1328    5.6512   18.3841 C   0  0  0  0  0  0  0  0  0  0  0  0
   47.1538    6.5724   19.1334 C   0  0  0  0  0  0  0  0  0  0  0  0
   47.3532    4.5833   17.5966 C   0  0  0  0  0  0  0  0  0  0  0  0
   48.2223    3.5696   16.8423 C   0  0  0  0  0  0  0  0  0  0  0  0
   47.8128    7.6540   19.9981 C   0  0  0  0  0  0  0  0  0  0  0  0
   48.6702    7.0966   21.1237 C   0  0  0  0  0  0  0  0  0  0  0  0
   49.1079    2.7306   17.7502 C   0  0  0  0  0  0  0  0  0  0  0  0
   49.2053    4.5303   19.3868 C   0  0  0  0  0  0  0  0  0  0  0  0
   50.3537    4.2792   19.0593 O   0  0  0  0  0  0  0  0  0  0  0  0
   48.2060    5.3194   18.5688 C   0  0  0  0  0  0  0  0  0  0  0  0
   48.7216    4.0925   20.5638 O   0  0  0  0  0  0  0  0  0  0  0  0
   47.7480    6.5801   19.3255 C   0  0  0  0  0  0  0  0  0  0  0  0
   46.9955    4.4461   18.1912 C   0  0  0  0  0  0  0  0  0  0  0  0
   48.8900    7.5738   19.5609 C   0  0  0  0  0  0  0  0  0  0  0  0
   47.3297    3.1908   17.3764 C   0  0  0  0  0  0  0  0  0  0  0  0
   47.9590    3.4904   16.0248 C   0  0  0  0  0  0  0  0  0  0  0  0
   48.3952    8.8328   20.2564 C   0  0  0  0  0  0  0  0  0  0  0  0
   48.7775    5.1512   19.1149 H   0  0  0  0  0  0  0  0  0  0  0  0
   46.4865    7.0698   18.4175 H   0  0  0  0  0  0  0  0  0  0  0  0
   46.5082    5.9600   19.7763 H   0  0  0  0  0  0  0  0  0  0  0  0
   46.7013    4.0343   18.2885 H   0  0  0  0  0  0  0  0  0  0  0  0
   46.6873    5.0668   16.8700 H   0  0  0  0  0  0  0  0  0  0  0  0
   47.5580    2.8954   16.2879 H   0  0  0  0  0  0  0  0  0  0  0  0
   48.8422    4.0770   16.0949 H   0  0  0  0  0  0  0  0  0  0  0  0
   47.0193    8.2691   20.4398 H   0  0  0  0  0  0  0  0  0  0  0  0
   48.4162    8.3260   19.3779 H   0  0  0  0  0  0  0  0  0  0  0  0
   49.5550    6.5822   20.7380 H   0  0  0  0  0  0  0  0  0  0  0  0
   48.1013    6.3943   21.7410 H   0  0  0  0  0  0  0  0  0  0  0  0
   49.0171    7.9102   21.7689 H   0  0  0  0  0  0  0  0  0  0  0  0
   48.5181    2.2377   18.5294 H   0  0  0  0  0  0  0  0  0  0  0  0
   49.8804    3.3376   18.2311 H   0  0  0  0  0  0  0  0  0  0  0  0
   49.6142    1.9544   17.1672 H   0  0  0  0  0  0  0  0  0  0  0  0
   48.7148    5.6415   17.6523 H   0  0  0  0  0  0  0  0  0  0  0  0
   49.4743    3.6080   20.9629 H   0  0  0  0  0  0  0  0  0  0  0  0
   47.3011    6.3055   20.2894 H   0  0  0  0  0  0  0  0  0  0  0  0
   46.9623    7.0799   18.7447 H   0  0  0  0  0  0  0  0  0  0  0  0
   46.2807    5.0517   17.6194 H   0  0  0  0  0  0  0  0  0  0  0  0
   46.4706    4.1296   19.1019 H   0  0  0  0  0  0  0  0  0  0  0  0
   49.3466    7.8492   18.6032 H   0  0  0  0  0  0  0  0  0  0  0  0
   49.6730    7.1157   20.1753 H   0  0  0  0  0  0  0  0  0  0  0  0
   46.3998    2.6336   17.2097 H   0  0  0  0  0  0  0  0  0  0  0  0
   47.9896    2.5283   17.9475 H   0  0  0  0  0  0  0  0  0  0  0  0
   47.3369    4.1798   15.4451 H   0  0  0  0  0  0  0  0  0  0  0  0
   48.0672    2.5659   15.4484 H   0  0  0  0  0  0  0  0  0  0  0  0
   48.9549    3.9291   16.1338 H   0  0  0  0  0  0  0  0  0  0  0  0
   49.2248    9.5289   20.4151 H   0  0  0  0  0  0  0  0  0  0  0  0
   47.6358    9.3414   19.6540 H   0  0  0  0  0  0  0  0  0  0  0  0
   47.9588    8.5959   21.2320 H   0  0  0  0  0  0  0  0  0  0  0  0
  3  2  1  0
  4  2  2  0
  5  2  1  0
  6  5  1  0
  7  5  1  0
  8  7  1  0
  9  6  1  0
 10  9  1  0
 11  8  1  0
 13 12  2  0
 14 12  1  0
 15 12  1  0
 16 14  1  0
 17 14  1  0
 18 16  1  0
 19 17  1  0
 20 19  1  0
 21 18  1  0
  5 22  1  0
  6 23  1  0
  6 24  1  0
  7 25  1  0
  7 26  1  0
  8 27  1  0
  8 28  1  0
  9 29  1  0
  9 30  1  0
 10 31  1  0
 10 32  1  0
 10 33  1  0
 11 34  1  0
 11 35  1  0
 11 36  1  0
 14 37  1  0
 15 38  1  0
 16 39  1  0
 16 40  1  0
 17 41  1  0
 17 42  1  0
 18 43  1  0
 18 44  1  0
 19 45  1  0
 19 46  1  0
 20 47  1  0
 20 48  1  0
 20 49  1  0
 21 50  1  0
 21 51  1  0
 21 52  1  0
M  CHG  2   1   1   3  -1
M  END
> <Uni-Dock RESULT> 
ENERGY=   -3.981  LOWER_BOUND=    1.415  UPPER_BOUND=    4.279
INTER + INTRA:          -3.981
INTER:                  -3.981
INTRA:                   0.000
UNBOUND:                 0.000

$$$$

     RDKit          3D

 52 49  0  0  0  0  0  0  0  0999 V2000
   47.8320   11.7620   18.8803 Na  0  0  0  0  0 15  0  0  0  0  0  0
   48.9995   12.2376   20.1788 C   0  0  0  0  0  0  0  0  0  0  0  0
   48.7163   13.1124   21.0448 O   0  0  0  0  0  0  0  0  0  0  0  0
   50.0528   11.5503   20.0465 O   0  0  0  0  0  0  0  0  0  0  0  0
   47.9147   11.9537   19.1216 C   0  0  0  0  0  0  0  0  0  0  0  0
   46.6353   11.4506   19.8133 C   0  0  0  0  0  0  0  0  0  0  0  0
   47.6147   13.2377   18.3283 C   0  0  0  0  0  0  0  0  0  0  0  0
   48.8046   13.8136   17.5510 C   0  0  0  0  0  0  0  0  0  0  0  0
   46.7935   10.1440   20.6003 C   0  0  0  0  0  0  0  0  0  0  0  0
   47.1921    8.9567   19.7375 C   0  0  0  0  0  0  0  0  0  0  0  0
   49.3419   12.8795   16.4780 C   0  0  0  0  0  0  0  0  0  0  0  0
   48.6136   10.9348   17.7486 C   0  0  0  0  0  0  0  0  0  0  0  0
   49.8172   10.8244   17.5802 O   0  0  0  0  0  0  0  0  0  0  0  0
   47.9420   11.8489   18.7504 C   0  0  0  0  0  0  0  0  0  0  0  0
   47.7534   10.2120   17.0080 O   0  0  0  0  0  0  0  0  0  0  0  0
   47.1030   11.0406   19.7575 C   0  0  0  0  0  0  0  0  0  0  0  0
   47.0681   12.8963   18.0366 C   0  0  0  0  0  0  0  0  0  0  0  0
   47.9580   10.1139   20.6277 C   0  0  0  0  0  0  0  0  0  0  0  0
   47.8161   13.8042   17.0529 C   0  0  0  0  0  0  0  0  0  0  0  0
   48.8915   14.6575   17.7071 C   0  0  0  0  0  0  0  0  0  0  0  0
   47.1095    9.3746   21.6508 C   0  0  0  0  0  0  0  0  0  0  0  0
   48.2677   11.1834   18.4275 H   0  0  0  0  0  0  0  0  0  0  0  0
   46.2561   12.2176   20.5012 H   0  0  0  0  0  0  0  0  0  0  0  0
   45.8531   11.3071   19.0565 H   0  0  0  0  0  0  0  0  0  0  0  0
   46.8013   13.0373   17.6188 H   0  0  0  0  0  0  0  0  0  0  0  0
   47.2423   14.0172   19.0058 H   0  0  0  0  0  0  0  0  0  0  0  0
   48.4801   14.7439   17.0689 H   0  0  0  0  0  0  0  0  0  0  0  0
   49.6145   14.0866   18.2365 H   0  0  0  0  0  0  0  0  0  0  0  0
   45.8342    9.9159   21.0806 H   0  0  0  0  0  0  0  0  0  0  0  0
   47.5224   10.2689   21.4086 H   0  0  0  0  0  0  0  0  0  0  0  0
   48.2031    9.0726   19.3367 H   0  0  0  0  0  0  0  0  0  0  0  0
   46.4989    8.8282   18.9003 H   0  0  0  0  0  0  0  0  0  0  0  0
   47.1770    8.0384   20.3334 H   0  0  0  0  0  0  0  0  0  0  0  0
   48.5456   12.5628   15.7972 H   0  0  0  0  0  0  0  0  0  0  0  0
   49.8008   11.9877   16.9145 H   0  0  0  0  0  0  0  0  0  0  0  0
   50.1096   13.3894   15.8870 H   0  0  0  0  0  0  0  0  0  0  0  0
   48.7347   12.3633   19.3068 H   0  0  0  0  0  0  0  0  0  0  0  0
   48.3334    9.6850   16.4194 H   0  0  0  0  0  0  0  0  0  0  0  0
   46.3438   10.4472   19.2324 H   0  0  0  0  0  0  0  0  0  0  0  0
   46.5623   11.7361   20.4120 H   0  0  0  0  0  0  0  0  0  0  0  0
   46.5784   13.5278   18.7891 H   0  0  0  0  0  0  0  0  0  0  0  0
   46.2624   12.3920   17.4874 H   0  0  0  0  0  0  0  0  0  0  0  0
   48.7237   10.6977   21.1516 H   0  0  0  0  0  0  0  0  0  0  0  0
   48.4790    9.3791   20.0040 H   0  0  0  0  0  0  0  0  0  0  0  0
   47.0853   14.4710   16.5793 H   0  0  0  0  0  0  0  0  0  0  0  0
   48.2613   13.2103   16.2469 H   0  0  0  0  0  0  0  0  0  0  0  0
   48.4816   15.2365   18.5406 H   0  0  0  0  0  0  0  0  0  0  0  0
   49.3070   15.3609   16.9781 H   0  0  0  0  0  0  0  0  0  0  0  0
   49.7170   14.0456   18.0818 H   0  0  0  0  0  0  0  0  0  0  0  0
   47.7380    8.7190   22.2616 H   0  0  0  0  0  0  0  0  0  0  0  0
   46.6005   10.0762   22.3194 H   0  0  0  0  0  0  0  0  0  0  0  0
   46.3516    8.7569   21.1585 H   0  0  0  0  0  0  0  0  0  0  0  0
  3  2  1  0
  4  2  2  0
  5  2  1  0
  6  5  1  0
  7  5  1  0
  8  7  1  0
  9  6  1  0
 10  9  1  0
 11  8  1  0
 13 12  2  0
 14 12  1  0
 15 12  1  0
 16 14  1  0
 17 14  1  0
 18 16  1  0
 19 17  1  0
 20 19  1  0
 21 18  1  0
  5 22  1  0
  6 23  1  0
  6 24  1  0
  7 25  1  0
  7 26  1  0
  8 27  1  0
  8 28  1  0
  9 29  1  0
  9 30  1  0
 10 31  1  0
 10 32  1  0
 10 33  1  0
 11 34  1  0
 11 35  1  0
 11 36  1  0
 14 37  1  0
 15 38  1  0
 16 39  1  0
 16 40  1  0
 17 41  1  0
 17 42  1  0
 18 43  1  0
 18 44  1  0
 19 45  1  0
 19 46  1  0
 20 47  1  0
 20 48  1  0
 20 49  1  0
 21 50  1  0
 21 51  1  0
 21 52  1  0
M  CHG  2   1   1   3  -1
M  END
> <Uni-Dock RESULT> 
ENERGY=   -3.977  LOWER_BOUND=    5.412  UPPER_BOUND=    7.570
INTER + INTRA:          -3.977
INTER:                  -3.977
INTRA:                   0.000
UNBOUND:                 0.000

$$$$

     RDKit          3D

 52 49  0  0  0  0  0  0  0  0999 V2000
   48.2430    6.2250   19.2716 Na  0  0  0  0  0 15  0  0  0  0  0  0
   48.7835    4.9215   20.4046 C   0  0  0  0  0  0  0  0  0  0  0  0
   48.0238    4.4571   21.3005 O   0  0  0  0  0  0  0  0  0  0  0  0
   49.9713    4.5999   20.1132 O   0  0  0  0  0  0  0  0  0  0  0  0
   48.1930    6.0443   19.5297 C   0  0  0  0  0  0  0  0  0  0  0  0
   46.9494    5.5239   18.7873 C   0  0  0  0  0  0  0  0  0  0  0  0
   47.8145    7.2460   20.4134 C   0  0  0  0  0  0  0  0  0  0  0  0
   48.9828    7.8878   21.1716 C   0  0  0  0  0  0  0  0  0  0  0  0
   47.2065    4.3517   17.8325 C   0  0  0  0  0  0  0  0  0  0  0  0
   48.1550    4.6900   16.6929 C   0  0  0  0  0  0  0  0  0  0  0  0
   50.0538    8.4699   20.2623 C   0  0  0  0  0  0  0  0  0  0  0  0
   49.5261    6.8421   18.5306 C   0  0  0  0  0  0  0  0  0  0  0  0
   50.7063    6.7026   18.8081 O   0  0  0  0  0  0  0  0  0  0  0  0
   48.3597    6.3487   19.3590 C   0  0  0  0  0  0  0  0  0  0  0  0
   49.1624    7.4858   17.4062 O   0  0  0  0  0  0  0  0  0  0  0  0
   47.5043    5.3454   18.5631 C   0  0  0  0  0  0  0  0  0  0  0  0
   47.4969    7.5267   19.8470 C   0  0  0  0  0  0  0  0  0  0  0  0
   48.2694    4.0648   18.2142 C   0  0  0  0  0  0  0  0  0  0  0  0
   48.2351    8.5592   20.7074 C   0  0  0  0  0  0  0  0  0  0  0  0
   48.7863    7.9898   22.0053 C   0  0  0  0  0  0  0  0  0  0  0  0
   47.3818    3.0705   17.4814 C   0  0  0  0  0  0  0  0  0  0  0  0
   48.9355    6.3675   18.7923 H   0  0  0  0  0  0  0  0  0  0  0  0
   46.1857    5.2110   19.5112 H   0  0  0  0  0  0  0  0  0  0  0  0
   46.5054    6.3477   18.2134 H   0  0  0  0  0  0  0  0  0  0  0  0
   47.3429    8.0149   19.7877 H   0  0  0  0  0  0  0  0  0  0  0  0
   47.0568    6.9452   21.1487 H   0  0  0  0  0  0  0  0  0  0  0  0
   48.5824    8.6960   21.7959 H   0  0  0  0  0  0  0  0  0  0  0  0
   49.4389    7.1646   21.8566 H   0  0  0  0  0  0  0  0  0  0  0  0
   46.2455    4.0436   17.4028 H   0  0  0  0  0  0  0  0  0  0  0  0
   47.5911    3.4859   18.3829 H   0  0  0  0  0  0  0  0  0  0  0  0
   49.1693    4.8780   17.0565 H   0  0  0  0  0  0  0  0  0  0  0  0
   47.8128    5.5735   16.1451 H   0  0  0  0  0  0  0  0  0  0  0  0
   48.2073    3.8539   15.9879 H   0  0  0  0  0  0  0  0  0  0  0  0
   49.6205    9.1721   19.5432 H   0  0  0  0  0  0  0  0  0  0  0  0
   50.5804    7.6869   19.7091 H   0  0  0  0  0  0  0  0  0  0  0  0
   50.7974    9.0102   20.8570 H   0  0  0  0  0  0  0  0  0  0  0  0
   48.7743    5.8243   20.2284 H   0  0  0  0  0  0  0  0  0  0  0  0
   50.0143    7.7388   16.9929 H   0  0  0  0  0  0  0  0  0  0  0  0
   47.1320    5.8087   17.6406 H   0  0  0  0  0  0  0  0  0  0  0  0
   46.6227    5.0759   19.1586 H   0  0  0  0  0  0  0  0  0  0  0  0
   46.6491    7.1355   20.4242 H   0  0  0  0  0  0  0  0  0  0  0  0
   47.0655    8.0503   18.9841 H   0  0  0  0  0  0  0  0  0  0  0  0
   48.6505    3.5982   19.1299 H   0  0  0  0  0  0  0  0  0  0  0  0
   49.1343    4.2977   17.5832 H   0  0  0  0  0  0  0  0  0  0  0  0
   47.5324    9.3647   20.9533 H   0  0  0  0  0  0  0  0  0  0  0  0
   49.0484    9.0213   20.1369 H   0  0  0  0  0  0  0  0  0  0  0  0
   48.0008    7.4900   22.5808 H   0  0  0  0  0  0  0  0  0  0  0  0
   49.1983    8.7947   22.6227 H   0  0  0  0  0  0  0  0  0  0  0  0
   49.5908    7.2725   21.8195 H   0  0  0  0  0  0  0  0  0  0  0  0
   47.9462    2.1639   17.2416 H   0  0  0  0  0  0  0  0  0  0  0  0
   46.5232    2.7831   18.0966 H   0  0  0  0  0  0  0  0  0  0  0  0
   47.0073    3.4955   16.5447 H   0  0  0  0  0  0  0  0  0  0  0  0
  3  2  1  0
  4  2  2  0
  5  2  1  0
  6  5  1  0
  7  5  1  0
  8  7  1  0
  9  6  1  0
 10  9  1  0
 11  8  1  0
 13 12  2  0
 14 12  1  0
 15 12  1  0
 16 14  1  0
 17 14  1  0
 18 16  1  0
 19 17  1  0
 20 19  1  0
 21 18  1  0
  5 22  1  0
  6 23  1  0
  6 24  1  0
  7 25  1  0
  7 26  1  0
  8 27  1  0
  8 28  1  0
  9 29  1  0
  9 30  1  0
 10 31  1  0
 10 32  1  0
 10 33  1  0
 11 34  1  0
 11 35  1  0
 11 36  1  0
 14 37  1  0
 15 38  1  0
 16 39  1  0
 16 40  1  0
 17 41  1  0
 17 42  1  0
 18 43  1  0
 18 44  1  0
 19 45  1  0
 19 46  1  0
 20 47  1  0
 20 48  1  0
 20 49  1  0
 21 50  1  0
 21 51  1  0
 21 52  1  0
M  CHG  2   1   1   3  -1
M  END
> <Uni-Dock RESULT> 
ENERGY=   -3.892  LOWER_BOUND=    1.449  UPPER_BOUND=    2.339
INTER + INTRA:          -3.892
INTER:                  -3.892
INTRA:                   0.000
UNBOUND:                 0.000

$$$$
