
     RDKit          3D

 52 49  0  0  0  0  0  0  0  0999 V2000
   44.7052    5.6832   11.0682 Na  0  0  0  0  0 15  0  0  0  0  0  0
   43.2330    5.5778   12.0102 C   0  0  0  0  0  0  0  0  0  0  0  0
   42.1853    6.0397   11.4732 O   0  0  0  0  0  0  0  0  0  0  0  0
   43.3676    4.9567   13.1018 O   0  0  0  0  0  0  0  0  0  0  0  0
   44.5236    5.8170   11.2015 C   0  0  0  0  0  0  0  0  0  0  0  0
   45.1585    4.4666   10.8278 C   0  0  0  0  0  0  0  0  0  0  0  0
   45.5094    6.6539   12.0343 C   0  0  0  0  0  0  0  0  0  0  0  0
   45.0054    8.0471   12.4300 C   0  0  0  0  0  0  0  0  0  0  0  0
   44.2909    3.6538    9.8616 C   0  0  0  0  0  0  0  0  0  0  0  0
   44.9752    2.3562    9.4595 C   0  0  0  0  0  0  0  0  0  0  0  0
   44.7212    8.9528   11.2419 C   0  0  0  0  0  0  0  0  0  0  0  0
   43.5230    5.1037   12.0590 C   0  0  0  0  0  0  0  0  0  0  0  0
   42.3968    5.5225   11.8506 O   0  0  0  0  0  0  0  0  0  0  0  0
   44.7825    5.4728   11.3053 C   0  0  0  0  0  0  0  0  0  0  0  0
   43.7519    4.2166   13.0462 O   0  0  0  0  0  0  0  0  0  0  0  0
   44.6351    5.0790    9.8254 C   0  0  0  0  0  0  0  0  0  0  0  0
   45.0440    6.9829   11.4414 C   0  0  0  0  0  0  0  0  0  0  0  0
   44.5744    3.5615    9.6239 C   0  0  0  0  0  0  0  0  0  0  0  0
   45.3971    7.3918   12.8750 C   0  0  0  0  0  0  0  0  0  0  0  0
   45.7036    8.8786   12.9681 C   0  0  0  0  0  0  0  0  0  0  0  0
   44.4841    3.2010    8.1490 C   0  0  0  0  0  0  0  0  0  0  0  0
   44.2839    6.3533   10.2754 H   0  0  0  0  0  0  0  0  0  0  0  0
   45.3558    3.8709   11.7281 H   0  0  0  0  0  0  0  0  0  0  0  0
   46.1320    4.6495   10.3547 H   0  0  0  0  0  0  0  0  0  0  0  0
   46.4439    6.7712   11.4704 H   0  0  0  0  0  0  0  0  0  0  0  0
   45.7742    6.1142   12.9527 H   0  0  0  0  0  0  0  0  0  0  0  0
   44.1068    7.9677   13.0518 H   0  0  0  0  0  0  0  0  0  0  0  0
   45.7720    8.5239   13.0530 H   0  0  0  0  0  0  0  0  0  0  0  0
   43.3264    3.4153   10.3231 H   0  0  0  0  0  0  0  0  0  0  0  0
   44.0843    4.2439    8.9612 H   0  0  0  0  0  0  0  0  0  0  0  0
   44.3403    1.7910    8.7700 H   0  0  0  0  0  0  0  0  0  0  0  0
   45.1698    1.7281   10.3347 H   0  0  0  0  0  0  0  0  0  0  0  0
   45.9283    2.5536    8.9588 H   0  0  0  0  0  0  0  0  0  0  0  0
   44.4749    9.9612   11.5896 H   0  0  0  0  0  0  0  0  0  0  0  0
   45.5934    9.0250   10.5847 H   0  0  0  0  0  0  0  0  0  0  0  0
   43.8727    8.5905   10.6544 H   0  0  0  0  0  0  0  0  0  0  0  0
   45.6327    4.9267   11.7337 H   0  0  0  0  0  0  0  0  0  0  0  0
   42.8672    4.0703   13.4423 H   0  0  0  0  0  0  0  0  0  0  0  0
   43.7334    5.5383    9.4002 H   0  0  0  0  0  0  0  0  0  0  0  0
   45.4892    5.4737    9.2606 H   0  0  0  0  0  0  0  0  0  0  0  0
   45.8741    7.2657   10.7817 H   0  0  0  0  0  0  0  0  0  0  0  0
   44.1656    7.5500   11.1078 H   0  0  0  0  0  0  0  0  0  0  0  0
   43.7058    3.1423   10.1436 H   0  0  0  0  0  0  0  0  0  0  0  0
   45.4678    3.0935   10.0533 H   0  0  0  0  0  0  0  0  0  0  0  0
   44.5685    7.1589   13.5530 H   0  0  0  0  0  0  0  0  0  0  0  0
   46.2690    6.8237   13.2193 H   0  0  0  0  0  0  0  0  0  0  0  0
   44.8407    9.4769   12.6585 H   0  0  0  0  0  0  0  0  0  0  0  0
   46.5533    9.1451   12.3314 H   0  0  0  0  0  0  0  0  0  0  0  0
   45.9533    9.1502   13.9986 H   0  0  0  0  0  0  0  0  0  0  0  0
   44.4420    2.1142    8.0265 H   0  0  0  0  0  0  0  0  0  0  0  0
   43.5847    3.6293    7.6951 H   0  0  0  0  0  0  0  0  0  0  0  0
   45.3560    3.5710    7.6002 H   0  0  0  0  0  0  0  0  0  0  0  0
  3  2  1  0
  4  2  2  0
  5  2  1  0
  6  5  1  0
  7  5  1  0
  8  7  1  0
  9  6  1  0
 10  9  1  0
 11  8  1  0
 13 12  2  0
 14 12  1  0
 15 12  1  0
 16 14  1  0
 17 14  1  0
 18 16  1  0
 19 17  1  0
 20 19  1  0
 21 18  1  0
  5 22  1  0
  6 23  1  0
  6 24  1  0
  7 25  1  0
  7 26  1  0
  8 27  1  0
  8 28  1  0
  9 29  1  0
  9 30  1  0
 10 31  1  0
 10 32  1  0
 10 33  1  0
 11 34  1  0
 11 35  1  0
 11 36  1  0
 14 37  1  0
 15 38  1  0
 16 39  1  0
 16 40  1  0
 17 41  1  0
 17 42  1  0
 18 43  1  0
 18 44  1  0
 19 45  1  0
 19 46  1  0
 20 47  1  0
 20 48  1  0
 20 49  1  0
 21 50  1  0
 21 51  1  0
 21 52  1  0
M  CHG  2   1   1   3  -1
M  END
> <Uni-Dock RESULT> 
ENERGY=   -6.391  LOWER_BOUND=    0.000  UPPER_BOUND=    0.000
INTER + INTRA:          -6.391
INTER:                  -6.391
INTRA:                   0.000
UNBOUND:                 0.000

$$$$

     RDKit          3D

 52 49  0  0  0  0  0  0  0  0999 V2000
   44.9019    5.9600   11.4161 Na  0  0  0  0  0 15  0  0  0  0  0  0
   43.2683    5.7803   12.0203 C   0  0  0  0  0  0  0  0  0  0  0  0
   43.1396    5.1920   13.1323 O   0  0  0  0  0  0  0  0  0  0  0  0
   42.3943    6.3514   11.3093 O   0  0  0  0  0  0  0  0  0  0  0  0
   44.7073    5.7921   11.4670 C   0  0  0  0  0  0  0  0  0  0  0  0
   45.1910    7.2441   11.3125 C   0  0  0  0  0  0  0  0  0  0  0  0
   44.7459    5.0731   10.1078 C   0  0  0  0  0  0  0  0  0  0  0  0
   44.3281    3.5979   10.1415 C   0  0  0  0  0  0  0  0  0  0  0  0
   45.3317    7.9655   12.6567 C   0  0  0  0  0  0  0  0  0  0  0  0
   45.8744    9.3749   12.4757 C   0  0  0  0  0  0  0  0  0  0  0  0
   45.2300    2.7284   11.0036 C   0  0  0  0  0  0  0  0  0  0  0  0
   43.3349    6.2903   11.8040 C   0  0  0  0  0  0  0  0  0  0  0  0
   42.8928    5.7135   12.7833 O   0  0  0  0  0  0  0  0  0  0  0  0
   44.7299    6.1660   11.2304 C   0  0  0  0  0  0  0  0  0  0  0  0
   42.5624    7.1443   11.1057 O   0  0  0  0  0  0  0  0  0  0  0  0
   45.7630    6.6159   12.2779 C   0  0  0  0  0  0  0  0  0  0  0  0
   44.9874    4.7099   10.8050 C   0  0  0  0  0  0  0  0  0  0  0  0
   45.6752    8.1143   12.5846 C   0  0  0  0  0  0  0  0  0  0  0  0
   44.1148    4.2798    9.6215 C   0  0  0  0  0  0  0  0  0  0  0  0
   44.4299    2.8563    9.1887 C   0  0  0  0  0  0  0  0  0  0  0  0
   46.7428    8.5400   13.5809 C   0  0  0  0  0  0  0  0  0  0  0  0
   45.3759    5.2788   12.1686 H   0  0  0  0  0  0  0  0  0  0  0  0
   44.5095    7.8109   10.6654 H   0  0  0  0  0  0  0  0  0  0  0  0
   46.1680    7.2428   10.8122 H   0  0  0  0  0  0  0  0  0  0  0  0
   45.7628    5.1356    9.6992 H   0  0  0  0  0  0  0  0  0  0  0  0
   44.0977    5.5941    9.3914 H   0  0  0  0  0  0  0  0  0  0  0  0
   43.2917    3.5005   10.4834 H   0  0  0  0  0  0  0  0  0  0  0  0
   44.3533    3.2118    9.1152 H   0  0  0  0  0  0  0  0  0  0  0  0
   44.3614    8.0237   13.1621 H   0  0  0  0  0  0  0  0  0  0  0  0
   46.0069    7.4028   13.3117 H   0  0  0  0  0  0  0  0  0  0  0  0
   45.9676    9.8725   13.4460 H   0  0  0  0  0  0  0  0  0  0  0  0
   45.2068    9.9745   11.8488 H   0  0  0  0  0  0  0  0  0  0  0  0
   46.8635    9.3575   12.0068 H   0  0  0  0  0  0  0  0  0  0  0  0
   44.9491    1.6758   10.8972 H   0  0  0  0  0  0  0  0  0  0  0  0
   46.2779    2.8309   10.7047 H   0  0  0  0  0  0  0  0  0  0  0  0
   45.1442    2.9869   12.0629 H   0  0  0  0  0  0  0  0  0  0  0  0
   44.8163    6.8127   10.3478 H   0  0  0  0  0  0  0  0  0  0  0  0
   41.7042    7.1278   11.5791 H   0  0  0  0  0  0  0  0  0  0  0  0
   45.6315    6.0466   13.2071 H   0  0  0  0  0  0  0  0  0  0  0  0
   46.7718    6.3923   11.9083 H   0  0  0  0  0  0  0  0  0  0  0  0
   46.0418    4.5983   10.5221 H   0  0  0  0  0  0  0  0  0  0  0  0
   44.8120    4.0326   11.6507 H   0  0  0  0  0  0  0  0  0  0  0  0
   44.6902    8.3624   12.9951 H   0  0  0  0  0  0  0  0  0  0  0  0
   45.7973    8.6907   11.6602 H   0  0  0  0  0  0  0  0  0  0  0  0
   43.0539    4.3414    9.8878 H   0  0  0  0  0  0  0  0  0  0  0  0
   44.2778    4.9564    8.7746 H   0  0  0  0  0  0  0  0  0  0  0  0
   44.2489    2.1493   10.0047 H   0  0  0  0  0  0  0  0  0  0  0  0
   45.4752    2.7625    8.8777 H   0  0  0  0  0  0  0  0  0  0  0  0
   43.7971    2.5686    8.3432 H   0  0  0  0  0  0  0  0  0  0  0  0
   46.6633    9.6121   13.7863 H   0  0  0  0  0  0  0  0  0  0  0  0
   46.6310    8.0033   14.5284 H   0  0  0  0  0  0  0  0  0  0  0  0
   47.7460    8.3427   13.1898 H   0  0  0  0  0  0  0  0  0  0  0  0
  3  2  1  0
  4  2  2  0
  5  2  1  0
  6  5  1  0
  7  5  1  0
  8  7  1  0
  9  6  1  0
 10  9  1  0
 11  8  1  0
 13 12  2  0
 14 12  1  0
 15 12  1  0
 16 14  1  0
 17 14  1  0
 18 16  1  0
 19 17  1  0
 20 19  1  0
 21 18  1  0
  5 22  1  0
  6 23  1  0
  6 24  1  0
  7 25  1  0
  7 26  1  0
  8 27  1  0
  8 28  1  0
  9 29  1  0
  9 30  1  0
 10 31  1  0
 10 32  1  0
 10 33  1  0
 11 34  1  0
 11 35  1  0
 11 36  1  0
 14 37  1  0
 15 38  1  0
 16 39  1  0
 16 40  1  0
 17 41  1  0
 17 42  1  0
 18 43  1  0
 18 44  1  0
 19 45  1  0
 19 46  1  0
 20 47  1  0
 20 48  1  0
 20 49  1  0
 21 50  1  0
 21 51  1  0
 21 52  1  0
M  CHG  2   1   1   3  -1
M  END
> <Uni-Dock RESULT> 
ENERGY=   -5.820  LOWER_BOUND=    0.714  UPPER_BOUND=    4.236
INTER + INTRA:          -5.820
INTER:                  -5.820
INTRA:                   0.000
UNBOUND:                 0.000

$$$$

     RDKit          3D

 52 49  0  0  0  0  0  0  0  0999 V2000
   45.5107    4.2298   12.2546 Na  0  0  0  0  0 15  0  0  0  0  0  0
   43.8402    4.3858   12.7556 C   0  0  0  0  0  0  0  0  0  0  0  0
   43.2666    3.3278   13.1442 O   0  0  0  0  0  0  0  0  0  0  0  0
   43.4168    5.5759   12.7609 O   0  0  0  0  0  0  0  0  0  0  0  0
   45.2613    4.1733   12.1971 C   0  0  0  0  0  0  0  0  0  0  0  0
   46.2741    4.9638   13.0433 C   0  0  0  0  0  0  0  0  0  0  0  0
   45.3174    4.6384   10.7320 C   0  0  0  0  0  0  0  0  0  0  0  0
   44.3814    3.8884    9.7765 C   0  0  0  0  0  0  0  0  0  0  0  0
   46.3840    4.4363   14.4774 C   0  0  0  0  0  0  0  0  0  0  0  0
   47.4396    5.1943   15.2677 C   0  0  0  0  0  0  0  0  0  0  0  0
   44.6861    2.4026    9.6658 C   0  0  0  0  0  0  0  0  0  0  0  0
   44.1372    4.8157   12.9513 C   0  0  0  0  0  0  0  0  0  0  0  0
   43.3134    3.9839   13.2928 O   0  0  0  0  0  0  0  0  0  0  0  0
   45.4721    4.5521   12.2888 C   0  0  0  0  0  0  0  0  0  0  0  0
   43.9085    6.1279   13.1507 O   0  0  0  0  0  0  0  0  0  0  0  0
   46.3492    3.6914   13.2145 C   0  0  0  0  0  0  0  0  0  0  0  0
   45.2507    3.8455   10.9400 C   0  0  0  0  0  0  0  0  0  0  0  0
   46.7650    4.4340   14.4883 C   0  0  0  0  0  0  0  0  0  0  0  0
   44.5550    4.7441    9.9126 C   0  0  0  0  0  0  0  0  0  0  0  0
   44.3992    4.0386    8.5742 C   0  0  0  0  0  0  0  0  0  0  0  0
   47.6751    3.5790   15.3568 C   0  0  0  0  0  0  0  0  0  0  0  0
   45.5230    3.1097   12.2508 H   0  0  0  0  0  0  0  0  0  0  0  0
   46.0091    6.0285   13.0668 H   0  0  0  0  0  0  0  0  0  0  0  0
   47.2621    4.8981   12.5696 H   0  0  0  0  0  0  0  0  0  0  0  0
   46.3458    4.5332   10.3627 H   0  0  0  0  0  0  0  0  0  0  0  0
   45.0802    5.7084   10.6707 H   0  0  0  0  0  0  0  0  0  0  0  0
   43.3366    4.0255   10.0767 H   0  0  0  0  0  0  0  0  0  0  0  0
   44.4787    4.3368    8.7802 H   0  0  0  0  0  0  0  0  0  0  0  0
   45.4222    4.5305   14.9935 H   0  0  0  0  0  0  0  0  0  0  0  0
   46.6431    3.3713   14.4630 H   0  0  0  0  0  0  0  0  0  0  0  0
   47.5027    4.8029   16.2879 H   0  0  0  0  0  0  0  0  0  0  0  0
   47.1952    6.2597   15.3269 H   0  0  0  0  0  0  0  0  0  0  0  0
   48.4258    5.0926   14.8037 H   0  0  0  0  0  0  0  0  0  0  0  0
   44.0615    1.9485    8.8899 H   0  0  0  0  0  0  0  0  0  0  0  0
   45.7340    2.2347    9.3980 H   0  0  0  0  0  0  0  0  0  0  0  0
   44.4792    1.8790   10.6035 H   0  0  0  0  0  0  0  0  0  0  0  0
   45.9804    5.5079   12.1079 H   0  0  0  0  0  0  0  0  0  0  0  0
   43.0268    6.1518   13.5783 H   0  0  0  0  0  0  0  0  0  0  0  0
   45.8193    2.7699   13.4878 H   0  0  0  0  0  0  0  0  0  0  0  0
   47.2549    3.3886   12.6738 H   0  0  0  0  0  0  0  0  0  0  0  0
   46.2209    3.5337   10.5331 H   0  0  0  0  0  0  0  0  0  0  0  0
   44.6585    2.9328   11.0845 H   0  0  0  0  0  0  0  0  0  0  0  0
   45.8812    4.7143   15.0720 H   0  0  0  0  0  0  0  0  0  0  0  0
   47.2881    5.3605   14.2244 H   0  0  0  0  0  0  0  0  0  0  0  0
   43.5636    5.0394   10.2736 H   0  0  0  0  0  0  0  0  0  0  0  0
   45.1359    5.6624    9.7683 H   0  0  0  0  0  0  0  0  0  0  0  0
   43.7972    3.1301    8.6777 H   0  0  0  0  0  0  0  0  0  0  0  0
   45.3740    3.7603    8.1611 H   0  0  0  0  0  0  0  0  0  0  0  0
   43.9009    4.6963    7.8550 H   0  0  0  0  0  0  0  0  0  0  0  0
   47.9606    4.1267   16.2603 H   0  0  0  0  0  0  0  0  0  0  0  0
   47.1712    2.6568   15.6633 H   0  0  0  0  0  0  0  0  0  0  0  0
   48.5901    3.3092   14.8200 H   0  0  0  0  0  0  0  0  0  0  0  0
  3  2  1  0
  4  2  2  0
  5  2  1  0
  6  5  1  0
  7  5  1  0
  8  7  1  0
  9  6  1  0
 10  9  1  0
 11  8  1  0
 13 12  2  0
 14 12  1  0
 15 12  1  0
 16 14  1  0
 17 14  1  0
 18 16  1  0
 19 17  1  0
 20 19  1  0
 21 18  1  0
  5 22  1  0
  6 23  1  0
  6 24  1  0
  7 25  1  0
  7 26  1  0
  8 27  1  0
  8 28  1  0
  9 29  1  0
  9 30  1  0
 10 31  1  0
 10 32  1  0
 10 33  1  0
 11 34  1  0
 11 35  1  0
 11 36  1  0
 14 37  1  0
 15 38  1  0
 16 39  1  0
 16 40  1  0
 17 41  1  0
 17 42  1  0
 18 43  1  0
 18 44  1  0
 19 45  1  0
 19 46  1  0
 20 47  1  0
 20 48  1  0
 20 49  1  0
 21 50  1  0
 21 51  1  0
 21 52  1  0
M  CHG  2   1   1   3  -1
M  END
> <Uni-Dock RESULT> 
ENERGY=   -5.451  LOWER_BOUND=    2.095  UPPER_BOUND=    4.200
INTER + INTRA:          -5.451
INTER:                  -5.451
INTRA:                   0.000
UNBOUND:                 0.000

$$$$

     RDKit          3D

 52 49  0  0  0  0  0  0  0  0999 V2000
   48.7430    4.8814   20.1206 Na  0  0  0  0  0 15  0  0  0  0  0  0
   47.8685    6.1989   19.3687 C   0  0  0  0  0  0  0  0  0  0  0  0
   48.5359    7.2396   19.1023 O   0  0  0  0  0  0  0  0  0  0  0  0
   46.6689    5.9216   19.0870 O   0  0  0  0  0  0  0  0  0  0  0  0
   48.6481    5.1236   20.1516 C   0  0  0  0  0  0  0  0  0  0  0  0
   48.7111    3.8264   19.3272 C   0  0  0  0  0  0  0  0  0  0  0  0
   47.9569    4.8614   21.5004 C   0  0  0  0  0  0  0  0  0  0  0  0
   47.8748    6.0748   22.4347 C   0  0  0  0  0  0  0  0  0  0  0  0
   49.5323    3.9823   18.0433 C   0  0  0  0  0  0  0  0  0  0  0  0
   49.6314    2.6674   17.2853 C   0  0  0  0  0  0  0  0  0  0  0  0
   49.2335    6.6126   22.8560 C   0  0  0  0  0  0  0  0  0  0  0  0
   47.7114    5.7139   19.1419 C   0  0  0  0  0  0  0  0  0  0  0  0
   48.0523    6.8464   18.8447 O   0  0  0  0  0  0  0  0  0  0  0  0
   48.4649    4.7412   20.0232 C   0  0  0  0  0  0  0  0  0  0  0  0
   46.5558    5.2024   18.6766 O   0  0  0  0  0  0  0  0  0  0  0  0
   49.8399    4.4380   19.4030 C   0  0  0  0  0  0  0  0  0  0  0  0
   48.6250    5.3362   21.4330 C   0  0  0  0  0  0  0  0  0  0  0  0
   49.7330    3.6611   18.0869 C   0  0  0  0  0  0  0  0  0  0  0  0
   47.2889    5.4682   22.1709 C   0  0  0  0  0  0  0  0  0  0  0  0
   47.4842    6.0069   23.5797 C   0  0  0  0  0  0  0  0  0  0  0  0
   51.1071    3.3283   17.5261 C   0  0  0  0  0  0  0  0  0  0  0  0
   49.6736    5.4688   20.3300 H   0  0  0  0  0  0  0  0  0  0  0  0
   47.7008    3.4815   19.0729 H   0  0  0  0  0  0  0  0  0  0  0  0
   49.1657    3.0369   19.9396 H   0  0  0  0  0  0  0  0  0  0  0  0
   48.4888    4.0566   22.0242 H   0  0  0  0  0  0  0  0  0  0  0  0
   46.9370    4.4922   21.3317 H   0  0  0  0  0  0  0  0  0  0  0  0
   47.2923    6.8780   21.9700 H   0  0  0  0  0  0  0  0  0  0  0  0
   47.3262    5.7758   23.3361 H   0  0  0  0  0  0  0  0  0  0  0  0
   49.0774    4.7333   17.3882 H   0  0  0  0  0  0  0  0  0  0  0  0
   50.5419    4.3320   18.2880 H   0  0  0  0  0  0  0  0  0  0  0  0
   50.2211    2.7996   16.3728 H   0  0  0  0  0  0  0  0  0  0  0  0
   48.6392    2.3040   16.9991 H   0  0  0  0  0  0  0  0  0  0  0  0
   50.1170    1.8985   17.8946 H   0  0  0  0  0  0  0  0  0  0  0  0
   49.1087    7.4007   23.6056 H   0  0  0  0  0  0  0  0  0  0  0  0
   49.8505    5.8225   23.2952 H   0  0  0  0  0  0  0  0  0  0  0  0
   49.7743    7.0456   22.0097 H   0  0  0  0  0  0  0  0  0  0  0  0
   47.8959    3.8055   20.0968 H   0  0  0  0  0  0  0  0  0  0  0  0
   46.1798    5.9253   18.1316 H   0  0  0  0  0  0  0  0  0  0  0  0
   50.3906    5.3716   19.2301 H   0  0  0  0  0  0  0  0  0  0  0  0
   50.4325    3.8462   20.1122 H   0  0  0  0  0  0  0  0  0  0  0  0
   49.2890    4.6917   22.0228 H   0  0  0  0  0  0  0  0  0  0  0  0
   49.1068    6.3206   21.3751 H   0  0  0  0  0  0  0  0  0  0  0  0
   49.1801    4.2454   17.3431 H   0  0  0  0  0  0  0  0  0  0  0  0
   49.1768    2.7305   18.2488 H   0  0  0  0  0  0  0  0  0  0  0  0
   46.6170    6.1404   21.6257 H   0  0  0  0  0  0  0  0  0  0  0  0
   46.7967    4.4903   22.2260 H   0  0  0  0  0  0  0  0  0  0  0  0
   47.9481    6.9983   23.5595 H   0  0  0  0  0  0  0  0  0  0  0  0
   48.1214    5.3408   24.1700 H   0  0  0  0  0  0  0  0  0  0  0  0
   46.5194    6.0935   24.0893 H   0  0  0  0  0  0  0  0  0  0  0  0
   51.0091    2.7741   16.5874 H   0  0  0  0  0  0  0  0  0  0  0  0
   51.6794    4.2395   17.3246 H   0  0  0  0  0  0  0  0  0  0  0  0
   51.6782    2.7110   18.2268 H   0  0  0  0  0  0  0  0  0  0  0  0
  3  2  1  0
  4  2  2  0
  5  2  1  0
  6  5  1  0
  7  5  1  0
  8  7  1  0
  9  6  1  0
 10  9  1  0
 11  8  1  0
 13 12  2  0
 14 12  1  0
 15 12  1  0
 16 14  1  0
 17 14  1  0
 18 16  1  0
 19 17  1  0
 20 19  1  0
 21 18  1  0
  5 22  1  0
  6 23  1  0
  6 24  1  0
  7 25  1  0
  7 26  1  0
  8 27  1  0
  8 28  1  0
  9 29  1  0
  9 30  1  0
 10 31  1  0
 10 32  1  0
 10 33  1  0
 11 34  1  0
 11 35  1  0
 11 36  1  0
 14 37  1  0
 15 38  1  0
 16 39  1  0
 16 40  1  0
 17 41  1  0
 17 42  1  0
 18 43  1  0
 18 44  1  0
 19 45  1  0
 19 46  1  0
 20 47  1  0
 20 48  1  0
 20 49  1  0
 21 50  1  0
 21 51  1  0
 21 52  1  0
M  CHG  2   1   1   3  -1
M  END
> <Uni-Dock RESULT> 
ENERGY=   -4.863  LOWER_BOUND=    8.544  UPPER_BOUND=    9.804
INTER + INTRA:          -4.863
INTER:                  -4.863
INTRA:                   0.000
UNBOUND:                 0.000

$$$$

     RDKit          3D

 52 49  0  0  0  0  0  0  0  0999 V2000
   39.6458   13.6596   14.2451 Na  0  0  0  0  0 15  0  0  0  0  0  0
   39.7044   12.4939   15.5503 C   0  0  0  0  0  0  0  0  0  0  0  0
   40.8375   11.9971   15.8125 O   0  0  0  0  0  0  0  0  0  0  0  0
   38.6052   12.3474   16.1550 O   0  0  0  0  0  0  0  0  0  0  0  0
   39.6799   13.4078   14.3089 C   0  0  0  0  0  0  0  0  0  0  0  0
   39.2463   14.8259   14.7182 C   0  0  0  0  0  0  0  0  0  0  0  0
   38.7063   12.8367   13.2640 C   0  0  0  0  0  0  0  0  0  0  0  0
   39.0610   11.4392   12.7415 C   0  0  0  0  0  0  0  0  0  0  0  0
   40.2646   15.5133   15.6333 C   0  0  0  0  0  0  0  0  0  0  0  0
   39.8401   16.9356   15.9656 C   0  0  0  0  0  0  0  0  0  0  0  0
   40.3976   11.3800   12.0183 C   0  0  0  0  0  0  0  0  0  0  0  0
   39.3739   12.9203   15.6924 C   0  0  0  0  0  0  0  0  0  0  0  0
   40.2822   12.2269   16.1183 O   0  0  0  0  0  0  0  0  0  0  0  0
   39.3594   13.7010   14.3959 C   0  0  0  0  0  0  0  0  0  0  0  0
   38.2306   13.0562   16.3912 O   0  0  0  0  0  0  0  0  0  0  0  0
   40.4911   14.7432   14.4058 C   0  0  0  0  0  0  0  0  0  0  0  0
   39.5206   12.7363   13.2082 C   0  0  0  0  0  0  0  0  0  0  0  0
   40.2665   15.8454   15.4459 C   0  0  0  0  0  0  0  0  0  0  0  0
   38.3141   11.8079   13.0366 C   0  0  0  0  0  0  0  0  0  0  0  0
   38.4775   10.9047   11.8239 C   0  0  0  0  0  0  0  0  0  0  0  0
   41.3715   16.8894   15.3952 C   0  0  0  0  0  0  0  0  0  0  0  0
   40.6852   13.4665   13.8748 H   0  0  0  0  0  0  0  0  0  0  0  0
   38.2685   14.8016   15.2159 H   0  0  0  0  0  0  0  0  0  0  0  0
   39.1214   15.4351   13.8137 H   0  0  0  0  0  0  0  0  0  0  0  0
   38.6562   13.5235   12.4091 H   0  0  0  0  0  0  0  0  0  0  0  0
   37.6919   12.7965   13.6816 H   0  0  0  0  0  0  0  0  0  0  0  0
   39.0561   10.7110   13.5601 H   0  0  0  0  0  0  0  0  0  0  0  0
   38.2755   11.1256   12.0432 H   0  0  0  0  0  0  0  0  0  0  0  0
   40.3784   14.9521   16.5673 H   0  0  0  0  0  0  0  0  0  0  0  0
   41.2461   15.5369   15.1457 H   0  0  0  0  0  0  0  0  0  0  0  0
   40.5797   17.4088   16.6191 H   0  0  0  0  0  0  0  0  0  0  0  0
   38.8746   16.9462   16.4813 H   0  0  0  0  0  0  0  0  0  0  0  0
   39.7522   17.5414   15.0581 H   0  0  0  0  0  0  0  0  0  0  0  0
   40.5401   10.3895   11.5745 H   0  0  0  0  0  0  0  0  0  0  0  0
   40.4430   12.1209   11.2141 H   0  0  0  0  0  0  0  0  0  0  0  0
   41.2325   11.5579   12.7020 H   0  0  0  0  0  0  0  0  0  0  0  0
   38.3987   14.2230   14.2996 H   0  0  0  0  0  0  0  0  0  0  0  0
   38.3761   12.5086   17.1911 H   0  0  0  0  0  0  0  0  0  0  0  0
   41.4543   14.2532   14.5979 H   0  0  0  0  0  0  0  0  0  0  0  0
   40.5627   15.2068   13.4138 H   0  0  0  0  0  0  0  0  0  0  0  0
   39.6493   13.3179   12.2866 H   0  0  0  0  0  0  0  0  0  0  0  0
   40.4288   12.1326   13.3325 H   0  0  0  0  0  0  0  0  0  0  0  0
   40.2314   15.4171   16.4538 H   0  0  0  0  0  0  0  0  0  0  0  0
   39.3022   16.3349   15.2665 H   0  0  0  0  0  0  0  0  0  0  0  0
   38.1840   11.1832   13.9272 H   0  0  0  0  0  0  0  0  0  0  0  0
   37.4010   12.4030   12.9201 H   0  0  0  0  0  0  0  0  0  0  0  0
   39.3667   10.2737   11.9219 H   0  0  0  0  0  0  0  0  0  0  0  0
   38.5726   11.4932   10.9058 H   0  0  0  0  0  0  0  0  0  0  0  0
   37.6064   10.2503   11.7188 H   0  0  0  0  0  0  0  0  0  0  0  0
   41.1928   17.6668   16.1446 H   0  0  0  0  0  0  0  0  0  0  0  0
   42.3473   16.4376   15.6002 H   0  0  0  0  0  0  0  0  0  0  0  0
   41.4138   17.3688   14.4120 H   0  0  0  0  0  0  0  0  0  0  0  0
  3  2  1  0
  4  2  2  0
  5  2  1  0
  6  5  1  0
  7  5  1  0
  8  7  1  0
  9  6  1  0
 10  9  1  0
 11  8  1  0
 13 12  2  0
 14 12  1  0
 15 12  1  0
 16 14  1  0
 17 14  1  0
 18 16  1  0
 19 17  1  0
 20 19  1  0
 21 18  1  0
  5 22  1  0
  6 23  1  0
  6 24  1  0
  7 25  1  0
  7 26  1  0
  8 27  1  0
  8 28  1  0
  9 29  1  0
  9 30  1  0
 10 31  1  0
 10 32  1  0
 10 33  1  0
 11 34  1  0
 11 35  1  0
 11 36  1  0
 14 37  1  0
 15 38  1  0
 16 39  1  0
 16 40  1  0
 17 41  1  0
 17 42  1  0
 18 43  1  0
 18 44  1  0
 19 45  1  0
 19 46  1  0
 20 47  1  0
 20 48  1  0
 20 49  1  0
 21 50  1  0
 21 51  1  0
 21 52  1  0
M  CHG  2   1   1   3  -1
M  END
> <Uni-Dock RESULT> 
ENERGY=   -4.704  LOWER_BOUND=    8.106  UPPER_BOUND=   10.594
INTER + INTRA:          -4.704
INTER:                  -4.704
INTRA:                   0.000
UNBOUND:                 0.000

$$$$

     RDKit          3D

 52 49  0  0  0  0  0  0  0  0999 V2000
   46.3557    5.8420   13.1127 Na  0  0  0  0  0 15  0  0  0  0  0  0
   46.8968    4.6971   14.3219 C   0  0  0  0  0  0  0  0  0  0  0  0
   46.4857    4.8872   15.5027 O   0  0  0  0  0  0  0  0  0  0  0  0
   47.5734    3.7392   13.8528 O   0  0  0  0  0  0  0  0  0  0  0  0
   46.5065    5.8054   13.3239 C   0  0  0  0  0  0  0  0  0  0  0  0
   45.6444    5.2087   12.1981 C   0  0  0  0  0  0  0  0  0  0  0  0
   47.7762    6.4449   12.7369 C   0  0  0  0  0  0  0  0  0  0  0  0
   48.6978    7.1174   13.7617 C   0  0  0  0  0  0  0  0  0  0  0  0
   44.2883    4.7014   12.6989 C   0  0  0  0  0  0  0  0  0  0  0  0
   43.4342    4.1794   11.5538 C   0  0  0  0  0  0  0  0  0  0  0  0
   48.0480    8.2804   14.4951 C   0  0  0  0  0  0  0  0  0  0  0  0
   46.7609    4.4268   13.8531 C   0  0  0  0  0  0  0  0  0  0  0  0
   46.6028    4.3906   15.0617 O   0  0  0  0  0  0  0  0  0  0  0  0
   46.4747    5.5955   12.9350 C   0  0  0  0  0  0  0  0  0  0  0  0
   47.2362    3.3539   13.1923 O   0  0  0  0  0  0  0  0  0  0  0  0
   44.9809    5.9571   13.0066 C   0  0  0  0  0  0  0  0  0  0  0  0
   47.3441    6.7983   13.3408 C   0  0  0  0  0  0  0  0  0  0  0  0
   44.0823    4.8628   12.4218 C   0  0  0  0  0  0  0  0  0  0  0  0
   48.8364    6.5551   13.0942 C   0  0  0  0  0  0  0  0  0  0  0  0
   49.6644    7.7795   13.4527 C   0  0  0  0  0  0  0  0  0  0  0  0
   42.6175    5.2710   12.4560 C   0  0  0  0  0  0  0  0  0  0  0  0
   45.9173    6.5739   13.8387 H   0  0  0  0  0  0  0  0  0  0  0  0
   46.1766    4.3897   11.6977 H   0  0  0  0  0  0  0  0  0  0  0  0
   45.4701    5.9795   11.4364 H   0  0  0  0  0  0  0  0  0  0  0  0
   47.4860    7.1938   11.9885 H   0  0  0  0  0  0  0  0  0  0  0  0
   48.3609    5.6878   12.1986 H   0  0  0  0  0  0  0  0  0  0  0  0
   49.0615    6.3840   14.4899 H   0  0  0  0  0  0  0  0  0  0  0  0
   49.5819    7.4928   13.2321 H   0  0  0  0  0  0  0  0  0  0  0  0
   44.4279    3.8971   13.4296 H   0  0  0  0  0  0  0  0  0  0  0  0
   43.7521    5.5123   13.2053 H   0  0  0  0  0  0  0  0  0  0  0  0
   42.4711    3.8224   11.9317 H   0  0  0  0  0  0  0  0  0  0  0  0
   43.9290    3.3467   11.0436 H   0  0  0  0  0  0  0  0  0  0  0  0
   43.2395    4.9667   10.8185 H   0  0  0  0  0  0  0  0  0  0  0  0
   48.7865    8.7856   15.1258 H   0  0  0  0  0  0  0  0  0  0  0  0
   47.6459    9.0148   13.7902 H   0  0  0  0  0  0  0  0  0  0  0  0
   47.2359    7.9422   15.1451 H   0  0  0  0  0  0  0  0  0  0  0  0
   46.7212    5.3130   11.9035 H   0  0  0  0  0  0  0  0  0  0  0  0
   47.3747    2.6854   13.8957 H   0  0  0  0  0  0  0  0  0  0  0  0
   44.6883    6.1501   14.0467 H   0  0  0  0  0  0  0  0  0  0  0  0
   44.8082    6.8870   12.4502 H   0  0  0  0  0  0  0  0  0  0  0  0
   47.0324    7.6788   12.7648 H   0  0  0  0  0  0  0  0  0  0  0  0
   47.1853    7.0389   14.3999 H   0  0  0  0  0  0  0  0  0  0  0  0
   44.2022    3.9301   12.9839 H   0  0  0  0  0  0  0  0  0  0  0  0
   44.3732    4.6577   11.3850 H   0  0  0  0  0  0  0  0  0  0  0  0
   49.1876    5.7047   13.6891 H   0  0  0  0  0  0  0  0  0  0  0  0
   49.0030    6.3058   12.0399 H   0  0  0  0  0  0  0  0  0  0  0  0
   49.5437    8.0387   14.5095 H   0  0  0  0  0  0  0  0  0  0  0  0
   49.3682    8.6441   12.8503 H   0  0  0  0  0  0  0  0  0  0  0  0
   50.7260    7.5858   13.2695 H   0  0  0  0  0  0  0  0  0  0  0  0
   41.9931    4.4771   12.0343 H   0  0  0  0  0  0  0  0  0  0  0  0
   42.2858    5.4550   13.4828 H   0  0  0  0  0  0  0  0  0  0  0  0
   42.4497    6.1813   11.8716 H   0  0  0  0  0  0  0  0  0  0  0  0
  3  2  1  0
  4  2  2  0
  5  2  1  0
  6  5  1  0
  7  5  1  0
  8  7  1  0
  9  6  1  0
 10  9  1  0
 11  8  1  0
 13 12  2  0
 14 12  1  0
 15 12  1  0
 16 14  1  0
 17 14  1  0
 18 16  1  0
 19 17  1  0
 20 19  1  0
 21 18  1  0
  5 22  1  0
  6 23  1  0
  6 24  1  0
  7 25  1  0
  7 26  1  0
  8 27  1  0
  8 28  1  0
  9 29  1  0
  9 30  1  0
 10 31  1  0
 10 32  1  0
 10 33  1  0
 11 34  1  0
 11 35  1  0
 11 36  1  0
 14 37  1  0
 15 38  1  0
 16 39  1  0
 16 40  1  0
 17 41  1  0
 17 42  1  0
 18 43  1  0
 18 44  1  0
 19 45  1  0
 19 46  1  0
 20 47  1  0
 20 48  1  0
 20 49  1  0
 21 50  1  0
 21 51  1  0
 21 52  1  0
M  CHG  2   1   1   3  -1
M  END
> <Uni-Dock RESULT> 
ENERGY=   -4.702  LOWER_BOUND=    2.895  UPPER_BOUND=    3.806
INTER + INTRA:          -4.702
INTER:                  -4.702
INTRA:                   0.000
UNBOUND:                 0.000

$$$$

     RDKit          3D

 52 49  0  0  0  0  0  0  0  0999 V2000
   48.0920    7.2600   12.6896 Na  0  0  0  0  0 15  0  0  0  0  0  0
   47.2540    8.3796   13.7431 C   0  0  0  0  0  0  0  0  0  0  0  0
   47.5908    8.3670   14.9620 O   0  0  0  0  0  0  0  0  0  0  0  0
   46.4588    9.1529   13.1388 O   0  0  0  0  0  0  0  0  0  0  0  0
   47.9198    7.2851   12.8855 C   0  0  0  0  0  0  0  0  0  0  0  0
   48.7532    7.9373   11.7690 C   0  0  0  0  0  0  0  0  0  0  0  0
   46.8398    6.3743   12.2775 C   0  0  0  0  0  0  0  0  0  0  0  0
   45.9701    5.6286   13.2970 C   0  0  0  0  0  0  0  0  0  0  0  0
   49.9490    8.7276   12.3100 C   0  0  0  0  0  0  0  0  0  0  0  0
   50.7897    9.3036   11.1808 C   0  0  0  0  0  0  0  0  0  0  0  0
   46.7533    4.6711   14.1817 C   0  0  0  0  0  0  0  0  0  0  0  0
   47.3785    8.6310   13.2608 C   0  0  0  0  0  0  0  0  0  0  0  0
   47.4245    8.7952   14.4683 O   0  0  0  0  0  0  0  0  0  0  0  0
   47.9463    7.4646   12.4813 C   0  0  0  0  0  0  0  0  0  0  0  0
   46.7763    9.5386   12.4688 O   0  0  0  0  0  0  0  0  0  0  0  0
   49.4692    7.3945   12.6892 C   0  0  0  0  0  0  0  0  0  0  0  0
   47.2754    6.1585   12.9407 C   0  0  0  0  0  0  0  0  0  0  0  0
   50.2034    8.5851   12.0643 C   0  0  0  0  0  0  0  0  0  0  0  0
   45.7900    6.0984   12.5706 C   0  0  0  0  0  0  0  0  0  0  0  0
   45.1675    4.7750   12.9880 C   0  0  0  0  0  0  0  0  0  0  0  0
   51.7094    8.4610   12.2377 C   0  0  0  0  0  0  0  0  0  0  0  0
   48.5914    6.6847   13.5109 H   0  0  0  0  0  0  0  0  0  0  0  0
   48.1272    8.5989   11.1568 H   0  0  0  0  0  0  0  0  0  0  0  0
   49.1269    7.1524   11.0987 H   0  0  0  0  0  0  0  0  0  0  0  0
   47.3218    5.6336   11.6263 H   0  0  0  0  0  0  0  0  0  0  0  0
   46.1765    6.9625   11.6301 H   0  0  0  0  0  0  0  0  0  0  0  0
   45.4204    6.3388   13.9246 H   0  0  0  0  0  0  0  0  0  0  0  0
   45.2157    5.0529   12.7469 H   0  0  0  0  0  0  0  0  0  0  0  0
   49.6061    9.5491   12.9485 H   0  0  0  0  0  0  0  0  0  0  0  0
   50.5770    8.0751   12.9276 H   0  0  0  0  0  0  0  0  0  0  0  0
   51.6377    9.8634   11.5875 H   0  0  0  0  0  0  0  0  0  0  0  0
   50.1988    9.9847   10.5603 H   0  0  0  0  0  0  0  0  0  0  0  0
   51.1840    8.5086   10.5399 H   0  0  0  0  0  0  0  0  0  0  0  0
   46.0665    4.0909   14.8062 H   0  0  0  0  0  0  0  0  0  0  0  0
   47.3387    3.9690   13.5799 H   0  0  0  0  0  0  0  0  0  0  0  0
   47.4335    5.2068   14.8500 H   0  0  0  0  0  0  0  0  0  0  0  0
   47.7415    7.6105   11.4129 H   0  0  0  0  0  0  0  0  0  0  0  0
   46.4611   10.2252   13.0934 H   0  0  0  0  0  0  0  0  0  0  0  0
   49.7024    7.3455   13.7606 H   0  0  0  0  0  0  0  0  0  0  0  0
   49.8523    6.4704   12.2380 H   0  0  0  0  0  0  0  0  0  0  0  0
   47.7875    5.3071   12.4749 H   0  0  0  0  0  0  0  0  0  0  0  0
   47.3843    6.0394   14.0264 H   0  0  0  0  0  0  0  0  0  0  0  0
   49.8710    9.5222   12.5246 H   0  0  0  0  0  0  0  0  0  0  0  0
   49.9693    8.6466   10.9952 H   0  0  0  0  0  0  0  0  0  0  0  0
   45.2429    6.9145   13.0554 H   0  0  0  0  0  0  0  0  0  0  0  0
   45.6714    6.2248   11.4882 H   0  0  0  0  0  0  0  0  0  0  0  0
   45.2427    4.6305   14.0705 H   0  0  0  0  0  0  0  0  0  0  0  0
   45.6639    3.9341   12.4933 H   0  0  0  0  0  0  0  0  0  0  0  0
   44.1078    4.7520   12.7149 H   0  0  0  0  0  0  0  0  0  0  0  0
   52.2148    9.3198   11.7851 H   0  0  0  0  0  0  0  0  0  0  0  0
   51.9804    8.4269   13.2977 H   0  0  0  0  0  0  0  0  0  0  0  0
   52.0865    7.5529   11.7566 H   0  0  0  0  0  0  0  0  0  0  0  0
  3  2  1  0
  4  2  2  0
  5  2  1  0
  6  5  1  0
  7  5  1  0
  8  7  1  0
  9  6  1  0
 10  9  1  0
 11  8  1  0
 13 12  2  0
 14 12  1  0
 15 12  1  0
 16 14  1  0
 17 14  1  0
 18 16  1  0
 19 17  1  0
 20 19  1  0
 21 18  1  0
  5 22  1  0
  6 23  1  0
  6 24  1  0
  7 25  1  0
  7 26  1  0
  8 27  1  0
  8 28  1  0
  9 29  1  0
  9 30  1  0
 10 31  1  0
 10 32  1  0
 10 33  1  0
 11 34  1  0
 11 35  1  0
 11 36  1  0
 14 37  1  0
 15 38  1  0
 16 39  1  0
 16 40  1  0
 17 41  1  0
 17 42  1  0
 18 43  1  0
 18 44  1  0
 19 45  1  0
 19 46  1  0
 20 47  1  0
 20 48  1  0
 20 49  1  0
 21 50  1  0
 21 51  1  0
 21 52  1  0
M  CHG  2   1   1   3  -1
M  END
> <Uni-Dock RESULT> 
ENERGY=   -4.627  LOWER_BOUND=    3.897  UPPER_BOUND=    5.763
INTER + INTRA:          -4.627
INTER:                  -4.627
INTRA:                   0.000
UNBOUND:                 0.000

$$$$

     RDKit          3D

 52 49  0  0  0  0  0  0  0  0999 V2000
   42.2059   11.2325   10.1109 Na  0  0  0  0  0 15  0  0  0  0  0  0
   43.3902   10.3031   11.0050 C   0  0  0  0  0  0  0  0  0  0  0  0
   44.0271   10.9195   11.9070 O   0  0  0  0  0  0  0  0  0  0  0  0
   43.4093    9.0760   10.7058 O   0  0  0  0  0  0  0  0  0  0  0  0
   42.4610   11.1942   10.1570 C   0  0  0  0  0  0  0  0  0  0  0  0
   41.0068   10.7147   10.3048 C   0  0  0  0  0  0  0  0  0  0  0  0
   42.8911   11.1353    8.6814 C   0  0  0  0  0  0  0  0  0  0  0  0
   44.3134   11.6348    8.3992 C   0  0  0  0  0  0  0  0  0  0  0  0
   40.4647   10.9033   11.7252 C   0  0  0  0  0  0  0  0  0  0  0  0
   39.0062   10.4826   11.8225 C   0  0  0  0  0  0  0  0  0  0  0  0
   44.5259   13.0993    8.7495 C   0  0  0  0  0  0  0  0  0  0  0  0
   42.9285    9.9988   10.9301 C   0  0  0  0  0  0  0  0  0  0  0  0
   43.7353   10.3240   11.7848 O   0  0  0  0  0  0  0  0  0  0  0  0
   42.1318   10.9237   10.0355 C   0  0  0  0  0  0  0  0  0  0  0  0
   42.6635    8.6990   10.6978 O   0  0  0  0  0  0  0  0  0  0  0  0
   41.2376   11.8335   10.8956 C   0  0  0  0  0  0  0  0  0  0  0  0
   43.0904   11.7635    9.1733 C   0  0  0  0  0  0  0  0  0  0  0  0
   40.1325   11.0576   11.6193 C   0  0  0  0  0  0  0  0  0  0  0  0
   43.8600   10.9168    8.1546 C   0  0  0  0  0  0  0  0  0  0  0  0
   44.7574   11.7799    7.2812 C   0  0  0  0  0  0  0  0  0  0  0  0
   39.2323   11.9886   12.4169 C   0  0  0  0  0  0  0  0  0  0  0  0
   42.5200   12.2303   10.5115 H   0  0  0  0  0  0  0  0  0  0  0  0
   40.9179    9.6589   10.0189 H   0  0  0  0  0  0  0  0  0  0  0  0
   40.3728   11.2809    9.6102 H   0  0  0  0  0  0  0  0  0  0  0  0
   42.1902   11.7293    8.0807 H   0  0  0  0  0  0  0  0  0  0  0  0
   42.8123   10.1052    8.3104 H   0  0  0  0  0  0  0  0  0  0  0  0
   45.0482   11.0214    8.9325 H   0  0  0  0  0  0  0  0  0  0  0  0
   44.5167   11.5017    7.3297 H   0  0  0  0  0  0  0  0  0  0  0  0
   41.0501   10.3130   12.4387 H   0  0  0  0  0  0  0  0  0  0  0  0
   40.5548   11.9549   12.0210 H   0  0  0  0  0  0  0  0  0  0  0  0
   38.6382   10.6249   12.8434 H   0  0  0  0  0  0  0  0  0  0  0  0
   38.8846    9.4264   11.5615 H   0  0  0  0  0  0  0  0  0  0  0  0
   38.3802   11.0776   11.1501 H   0  0  0  0  0  0  0  0  0  0  0  0
   45.5193   13.4227    8.4226 H   0  0  0  0  0  0  0  0  0  0  0  0
   43.7837   13.7338    8.2551 H   0  0  0  0  0  0  0  0  0  0  0  0
   44.4631   13.2676    9.8284 H   0  0  0  0  0  0  0  0  0  0  0  0
   41.4938   10.3244    9.3733 H   0  0  0  0  0  0  0  0  0  0  0  0
   43.2373    8.2234   11.3346 H   0  0  0  0  0  0  0  0  0  0  0  0
   41.8457   12.3728   11.6332 H   0  0  0  0  0  0  0  0  0  0  0  0
   40.7710   12.5913   10.2534 H   0  0  0  0  0  0  0  0  0  0  0  0
   42.5148   12.5254    8.6325 H   0  0  0  0  0  0  0  0  0  0  0  0
   43.8034   12.2988    9.8134 H   0  0  0  0  0  0  0  0  0  0  0  0
   40.5689   10.3190   12.3007 H   0  0  0  0  0  0  0  0  0  0  0  0
   39.5250   10.5089   10.8902 H   0  0  0  0  0  0  0  0  0  0  0  0
   44.4777   10.1713    8.6675 H   0  0  0  0  0  0  0  0  0  0  0  0
   43.1550   10.3719    7.5161 H   0  0  0  0  0  0  0  0  0  0  0  0
   45.4948   12.3167    7.8866 H   0  0  0  0  0  0  0  0  0  0  0  0
   44.1708   12.5153    6.7213 H   0  0  0  0  0  0  0  0  0  0  0  0
   45.2975   11.1572    6.5611 H   0  0  0  0  0  0  0  0  0  0  0  0
   38.4505   11.4159   12.9255 H   0  0  0  0  0  0  0  0  0  0  0  0
   39.8042   12.5316   13.1760 H   0  0  0  0  0  0  0  0  0  0  0  0
   38.7464   12.7202   11.7633 H   0  0  0  0  0  0  0  0  0  0  0  0
  3  2  1  0
  4  2  2  0
  5  2  1  0
  6  5  1  0
  7  5  1  0
  8  7  1  0
  9  6  1  0
 10  9  1  0
 11  8  1  0
 13 12  2  0
 14 12  1  0
 15 12  1  0
 16 14  1  0
 17 14  1  0
 18 16  1  0
 19 17  1  0
 20 19  1  0
 21 18  1  0
  5 22  1  0
  6 23  1  0
  6 24  1  0
  7 25  1  0
  7 26  1  0
  8 27  1  0
  8 28  1  0
  9 29  1  0
  9 30  1  0
 10 31  1  0
 10 32  1  0
 10 33  1  0
 11 34  1  0
 11 35  1  0
 11 36  1  0
 14 37  1  0
 15 38  1  0
 16 39  1  0
 16 40  1  0
 17 41  1  0
 17 42  1  0
 18 43  1  0
 18 44  1  0
 19 45  1  0
 19 46  1  0
 20 47  1  0
 20 48  1  0
 20 49  1  0
 21 50  1  0
 21 51  1  0
 21 52  1  0
M  CHG  2   1   1   3  -1
M  END
> <Uni-Dock RESULT> 
ENERGY=   -4.593  LOWER_BOUND=    5.082  UPPER_BOUND=    6.757
INTER + INTRA:          -4.593
INTER:                  -4.593
INTRA:                   0.000
UNBOUND:                 0.000

$$$$

     RDKit          3D

 52 49  0  0  0  0  0  0  0  0999 V2000
   41.0737   11.6036   11.6920 Na  0  0  0  0  0 15  0  0  0  0  0  0
   39.9682   10.4229   11.0215 C   0  0  0  0  0  0  0  0  0  0  0  0
   39.9842    9.2728   11.5472 O   0  0  0  0  0  0  0  0  0  0  0  0
   39.1994   10.8883   10.1339 O   0  0  0  0  0  0  0  0  0  0  0  0
   41.0514   11.3828   11.5527 C   0  0  0  0  0  0  0  0  0  0  0  0
   40.3848   12.6125   12.1930 C   0  0  0  0  0  0  0  0  0  0  0  0
   41.9694   11.8185   10.3981 C   0  0  0  0  0  0  0  0  0  0  0  0
   42.7292   10.6795    9.7075 C   0  0  0  0  0  0  0  0  0  0  0  0
   39.5858   12.2620   13.4524 C   0  0  0  0  0  0  0  0  0  0  0  0
   38.9953   13.5059   14.0985 C   0  0  0  0  0  0  0  0  0  0  0  0
   43.6838    9.9366   10.6293 C   0  0  0  0  0  0  0  0  0  0  0  0
   39.7130   10.9170   11.0658 C   0  0  0  0  0  0  0  0  0  0  0  0
   39.5550    9.7309   11.3009 O   0  0  0  0  0  0  0  0  0  0  0  0
   40.8694   11.7848   11.5133 C   0  0  0  0  0  0  0  0  0  0  0  0
   38.8069   11.5973   10.3377 O   0  0  0  0  0  0  0  0  0  0  0  0
   40.9256   11.8210   13.0504 C   0  0  0  0  0  0  0  0  0  0  0  0
   42.1846   11.2341   10.9352 C   0  0  0  0  0  0  0  0  0  0  0  0
   39.7244   12.5458   13.6659 C   0  0  0  0  0  0  0  0  0  0  0  0
   42.2572   11.3649    9.4105 C   0  0  0  0  0  0  0  0  0  0  0  0
   43.5890   10.8635    8.8737 C   0  0  0  0  0  0  0  0  0  0  0  0
   39.8346   12.6140   15.1814 C   0  0  0  0  0  0  0  0  0  0  0  0
   41.6486   10.8757   12.3201 H   0  0  0  0  0  0  0  0  0  0  0  0
   39.7260   13.1132   11.4722 H   0  0  0  0  0  0  0  0  0  0  0  0
   41.1622   13.3390   12.4628 H   0  0  0  0  0  0  0  0  0  0  0  0
   42.7016   12.5430   10.7775 H   0  0  0  0  0  0  0  0  0  0  0  0
   41.3841   12.3486    9.6356 H   0  0  0  0  0  0  0  0  0  0  0  0
   42.0280    9.9678    9.2578 H   0  0  0  0  0  0  0  0  0  0  0  0
   43.3092   11.1072    8.8807 H   0  0  0  0  0  0  0  0  0  0  0  0
   38.7713   11.5715   13.2077 H   0  0  0  0  0  0  0  0  0  0  0  0
   40.2355   11.7562   14.1760 H   0  0  0  0  0  0  0  0  0  0  0  0
   38.4294   13.2347   14.9952 H   0  0  0  0  0  0  0  0  0  0  0  0
   38.3166   14.0204   13.4108 H   0  0  0  0  0  0  0  0  0  0  0  0
   39.7828   14.2068   14.3934 H   0  0  0  0  0  0  0  0  0  0  0  0
   44.2743    9.2154   10.0552 H   0  0  0  0  0  0  0  0  0  0  0  0
   44.3768   10.6284   11.1183 H   0  0  0  0  0  0  0  0  0  0  0  0
   43.1451    9.3807   11.4020 H   0  0  0  0  0  0  0  0  0  0  0  0
   40.7196   12.8062   11.1406 H   0  0  0  0  0  0  0  0  0  0  0  0
   38.1270   10.9259   10.1194 H   0  0  0  0  0  0  0  0  0  0  0  0
   40.9783   10.8004   13.4508 H   0  0  0  0  0  0  0  0  0  0  0  0
   41.8434   12.3336   13.3654 H   0  0  0  0  0  0  0  0  0  0  0  0
   43.0283   11.7811   11.3746 H   0  0  0  0  0  0  0  0  0  0  0  0
   42.3086   10.1802   11.2157 H   0  0  0  0  0  0  0  0  0  0  0  0
   38.7932   12.0322   13.4023 H   0  0  0  0  0  0  0  0  0  0  0  0
   39.6593   13.5640   13.2650 H   0  0  0  0  0  0  0  0  0  0  0  0
   41.4492   10.7939    8.9399 H   0  0  0  0  0  0  0  0  0  0  0  0
   42.1259   12.4139    9.1209 H   0  0  0  0  0  0  0  0  0  0  0  0
   43.7387    9.8076    9.1206 H   0  0  0  0  0  0  0  0  0  0  0  0
   44.4222   11.4365    9.2929 H   0  0  0  0  0  0  0  0  0  0  0  0
   43.6209   10.9656    7.7844 H   0  0  0  0  0  0  0  0  0  0  0  0
   38.9684   13.1348   15.6012 H   0  0  0  0  0  0  0  0  0  0  0  0
   39.8719   11.6105   15.6172 H   0  0  0  0  0  0  0  0  0  0  0  0
   40.7363   13.1550   15.4856 H   0  0  0  0  0  0  0  0  0  0  0  0
  3  2  1  0
  4  2  2  0
  5  2  1  0
  6  5  1  0
  7  5  1  0
  8  7  1  0
  9  6  1  0
 10  9  1  0
 11  8  1  0
 13 12  2  0
 14 12  1  0
 15 12  1  0
 16 14  1  0
 17 14  1  0
 18 16  1  0
 19 17  1  0
 20 19  1  0
 21 18  1  0
  5 22  1  0
  6 23  1  0
  6 24  1  0
  7 25  1  0
  7 26  1  0
  8 27  1  0
  8 28  1  0
  9 29  1  0
  9 30  1  0
 10 31  1  0
 10 32  1  0
 10 33  1  0
 11 34  1  0
 11 35  1  0
 11 36  1  0
 14 37  1  0
 15 38  1  0
 16 39  1  0
 16 40  1  0
 17 41  1  0
 17 42  1  0
 18 43  1  0
 18 44  1  0
 19 45  1  0
 19 46  1  0
 20 47  1  0
 20 48  1  0
 20 49  1  0
 21 50  1  0
 21 51  1  0
 21 52  1  0
M  CHG  2   1   1   3  -1
M  END
> <Uni-Dock RESULT> 
ENERGY=   -4.563  LOWER_BOUND=    5.272  UPPER_BOUND=    7.884
INTER + INTRA:          -4.563
INTER:                  -4.563
INTRA:                   0.000
UNBOUND:                 0.000

$$$$
