
     RDKit          3D

 52 49  0  0  0  0  0  0  0  0999 V2000
   48.3251    5.5505   18.0728 Na  0  0  0  0  0 15  0  0  0  0  0  0
   49.5985    5.4643   18.1587 C   0  0  0  0  0  0  0  0  0  0  0  0
   50.3376    5.7676   17.1777 O   0  0  0  0  0  0  0  0  0  0  0  0
   49.9225    5.0485   19.3065 O   0  0  0  0  0  0  0  0  0  0  0  0
   48.0920    5.6313   17.8963 C   0  0  0  0  0  0  0  0  0  0  0  0
   47.4863    6.6343   18.8997 C   0  0  0  0  0  0  0  0  0  0  0  0
   47.3830    4.2680   18.0345 C   0  0  0  0  0  0  0  0  0  0  0  0
   47.6355    3.2860   16.8828 C   0  0  0  0  0  0  0  0  0  0  0  0
   47.8177    8.1070   18.6247 C   0  0  0  0  0  0  0  0  0  0  0  0
   49.2076    8.5373   19.0642 C   0  0  0  0  0  0  0  0  0  0  0  0
   48.9444    2.5191   16.9817 C   0  0  0  0  0  0  0  0  0  0  0  0
   50.0298    6.2192   17.2065 C   0  0  0  0  0  0  0  0  0  0  0  0
   50.8246    5.7142   17.9810 O   0  0  0  0  0  0  0  0  0  0  0  0
   48.5162    6.1924   17.2945 C   0  0  0  0  0  0  0  0  0  0  0  0
   50.4691    6.8846   16.1195 O   0  0  0  0  0  0  0  0  0  0  0  0
   47.9533    5.1416   16.3173 C   0  0  0  0  0  0  0  0  0  0  0  0
   48.0383    6.0066   18.7424 C   0  0  0  0  0  0  0  0  0  0  0  0
   48.2788    3.6742   16.6278 C   0  0  0  0  0  0  0  0  0  0  0  0
   48.3085    7.2414   19.6102 C   0  0  0  0  0  0  0  0  0  0  0  0
   47.8032    7.0415   21.0308 C   0  0  0  0  0  0  0  0  0  0  0  0
   47.2242    2.9797   17.4775 C   0  0  0  0  0  0  0  0  0  0  0  0
   47.9311    6.0101   16.8789 H   0  0  0  0  0  0  0  0  0  0  0  0
   46.3925    6.5501   18.8498 H   0  0  0  0  0  0  0  0  0  0  0  0
   47.7619    6.3786   19.9304 H   0  0  0  0  0  0  0  0  0  0  0  0
   47.6262    3.7907   18.9919 H   0  0  0  0  0  0  0  0  0  0  0  0
   46.2999    4.4495   18.0534 H   0  0  0  0  0  0  0  0  0  0  0  0
   46.8226    2.5487   16.8887 H   0  0  0  0  0  0  0  0  0  0  0  0
   47.5781    3.8035   15.9185 H   0  0  0  0  0  0  0  0  0  0  0  0
   47.6758    8.3375   17.5627 H   0  0  0  0  0  0  0  0  0  0  0  0
   47.0932    8.7202   19.1755 H   0  0  0  0  0  0  0  0  0  0  0  0
   49.9849    8.1167   18.4232 H   0  0  0  0  0  0  0  0  0  0  0  0
   49.4064    8.2402   20.0985 H   0  0  0  0  0  0  0  0  0  0  0  0
   49.2959    9.6272   19.0045 H   0  0  0  0  0  0  0  0  0  0  0  0
   49.0567    2.0524   17.9652 H   0  0  0  0  0  0  0  0  0  0  0  0
   49.8084    3.1609   16.7992 H   0  0  0  0  0  0  0  0  0  0  0  0
   48.9679    1.7247   16.2282 H   0  0  0  0  0  0  0  0  0  0  0  0
   48.1632    7.1771   16.9572 H   0  0  0  0  0  0  0  0  0  0  0  0
   51.4451    6.8202   16.1826 H   0  0  0  0  0  0  0  0  0  0  0  0
   46.8670    5.2712   16.2341 H   0  0  0  0  0  0  0  0  0  0  0  0
   48.3573    5.3618   15.3197 H   0  0  0  0  0  0  0  0  0  0  0  0
   48.5283    5.1387   19.1997 H   0  0  0  0  0  0  0  0  0  0  0  0
   46.9585    5.8129   18.7432 H   0  0  0  0  0  0  0  0  0  0  0  0
   49.2620    3.5737   17.0986 H   0  0  0  0  0  0  0  0  0  0  0  0
   48.3356    3.1322   15.6753 H   0  0  0  0  0  0  0  0  0  0  0  0
   49.3818    7.4584   19.6430 H   0  0  0  0  0  0  0  0  0  0  0  0
   47.8137    8.1172   19.1745 H   0  0  0  0  0  0  0  0  0  0  0  0
   46.7238    6.8588   21.0414 H   0  0  0  0  0  0  0  0  0  0  0  0
   48.3009    6.1913   21.5080 H   0  0  0  0  0  0  0  0  0  0  0  0
   48.0023    7.9335   21.6329 H   0  0  0  0  0  0  0  0  0  0  0  0
   47.1563    3.4067   18.4801 H   0  0  0  0  0  0  0  0  0  0  0  0
   47.4726    1.9189   17.5867 H   0  0  0  0  0  0  0  0  0  0  0  0
   46.2373    3.0454   17.0083 H   0  0  0  0  0  0  0  0  0  0  0  0
  3  2  1  0
  4  2  2  0
  5  2  1  0
  6  5  1  0
  7  5  1  0
  8  7  1  0
  9  6  1  0
 10  9  1  0
 11  8  1  0
 13 12  2  0
 14 12  1  0
 15 12  1  0
 16 14  1  0
 17 14  1  0
 18 16  1  0
 19 17  1  0
 20 19  1  0
 21 18  1  0
  5 22  1  0
  6 23  1  0
  6 24  1  0
  7 25  1  0
  7 26  1  0
  8 27  1  0
  8 28  1  0
  9 29  1  0
  9 30  1  0
 10 31  1  0
 10 32  1  0
 10 33  1  0
 11 34  1  0
 11 35  1  0
 11 36  1  0
 14 37  1  0
 15 38  1  0
 16 39  1  0
 16 40  1  0
 17 41  1  0
 17 42  1  0
 18 43  1  0
 18 44  1  0
 19 45  1  0
 19 46  1  0
 20 47  1  0
 20 48  1  0
 20 49  1  0
 21 50  1  0
 21 51  1  0
 21 52  1  0
M  CHG  2   1   1   3  -1
M  END
> <Uni-Dock RESULT> 
ENERGY=   -4.139  LOWER_BOUND=    0.000  UPPER_BOUND=    0.000
INTER + INTRA:          -4.139
INTER:                  -4.139
INTRA:                   0.000
UNBOUND:                 0.000

$$$$

     RDKit          3D

 52 49  0  0  0  0  0  0  0  0999 V2000
   47.6690    9.9547   19.7449 Na  0  0  0  0  0 15  0  0  0  0  0  0
   48.3579    9.9503   20.8229 C   0  0  0  0  0  0  0  0  0  0  0  0
   47.8022    9.7895   21.9480 O   0  0  0  0  0  0  0  0  0  0  0  0
   49.5782   10.1297   20.5512 O   0  0  0  0  0  0  0  0  0  0  0  0
   47.3921    9.9211   19.6259 C   0  0  0  0  0  0  0  0  0  0  0  0
   47.7838    8.7881   18.6551 C   0  0  0  0  0  0  0  0  0  0  0  0
   47.4348   11.2746   18.8866 C   0  0  0  0  0  0  0  0  0  0  0  0
   46.7452   12.4346   19.6171 C   0  0  0  0  0  0  0  0  0  0  0  0
   47.4251    7.3739   19.1304 C   0  0  0  0  0  0  0  0  0  0  0  0
   48.3763    6.7912   20.1627 C   0  0  0  0  0  0  0  0  0  0  0  0
   47.5901   13.0938   20.6954 C   0  0  0  0  0  0  0  0  0  0  0  0
   47.5974    9.3587   21.6797 C   0  0  0  0  0  0  0  0  0  0  0  0
   48.7339    9.6670   21.9957 O   0  0  0  0  0  0  0  0  0  0  0  0
   46.9668    9.4561   20.3040 C   0  0  0  0  0  0  0  0  0  0  0  0
   46.7411    8.8793   22.6040 O   0  0  0  0  0  0  0  0  0  0  0  0
   46.0575   10.6987   20.2315 C   0  0  0  0  0  0  0  0  0  0  0  0
   48.0258    9.4012   19.1928 C   0  0  0  0  0  0  0  0  0  0  0  0
   46.7546   12.0632   20.3182 C   0  0  0  0  0  0  0  0  0  0  0  0
   48.6686    8.0149   19.0659 C   0  0  0  0  0  0  0  0  0  0  0  0
   49.6937    7.9803   17.9428 C   0  0  0  0  0  0  0  0  0  0  0  0
   47.1224   12.6501   18.9630 C   0  0  0  0  0  0  0  0  0  0  0  0
   46.3678    9.7448   19.9783 H   0  0  0  0  0  0  0  0  0  0  0  0
   47.2425    8.9428   17.7122 H   0  0  0  0  0  0  0  0  0  0  0  0
   48.8502    8.8345   18.4019 H   0  0  0  0  0  0  0  0  0  0  0  0
   48.4645   11.5539   18.6315 H   0  0  0  0  0  0  0  0  0  0  0  0
   46.9078   11.1554   17.9304 H   0  0  0  0  0  0  0  0  0  0  0  0
   46.5071   13.2040   18.8716 H   0  0  0  0  0  0  0  0  0  0  0  0
   45.7892   12.1064   20.0406 H   0  0  0  0  0  0  0  0  0  0  0  0
   46.3992    7.3501   19.5151 H   0  0  0  0  0  0  0  0  0  0  0  0
   47.4440    6.7131   18.2545 H   0  0  0  0  0  0  0  0  0  0  0  0
   48.2681    7.2765   21.1347 H   0  0  0  0  0  0  0  0  0  0  0  0
   49.4176    6.8820   19.8386 H   0  0  0  0  0  0  0  0  0  0  0  0
   48.1611    5.7273   20.3082 H   0  0  0  0  0  0  0  0  0  0  0  0
   48.5789   13.3655   20.3130 H   0  0  0  0  0  0  0  0  0  0  0  0
   47.7180   12.4475   21.5659 H   0  0  0  0  0  0  0  0  0  0  0  0
   47.1010   14.0100   21.0430 H   0  0  0  0  0  0  0  0  0  0  0  0
   46.3247    8.5717   20.1882 H   0  0  0  0  0  0  0  0  0  0  0  0
   47.2665    8.8747   23.4316 H   0  0  0  0  0  0  0  0  0  0  0  0
   45.4508   10.6492   19.3186 H   0  0  0  0  0  0  0  0  0  0  0  0
   45.3457   10.6417   21.0662 H   0  0  0  0  0  0  0  0  0  0  0  0
   48.8138   10.1410   19.3769 H   0  0  0  0  0  0  0  0  0  0  0  0
   47.5555    9.6532   18.2343 H   0  0  0  0  0  0  0  0  0  0  0  0
   47.6417   12.0191   20.9583 H   0  0  0  0  0  0  0  0  0  0  0  0
   46.0620   12.7662   20.7983 H   0  0  0  0  0  0  0  0  0  0  0  0
   49.1604    7.7341   20.0036 H   0  0  0  0  0  0  0  0  0  0  0  0
   47.8954    7.2636   18.8675 H   0  0  0  0  0  0  0  0  0  0  0  0
   49.2300    8.2199   16.9805 H   0  0  0  0  0  0  0  0  0  0  0  0
   50.4993    8.6988   18.1250 H   0  0  0  0  0  0  0  0  0  0  0  0
   50.1385    6.9832   17.8663 H   0  0  0  0  0  0  0  0  0  0  0  0
   47.8747   12.0515   18.4453 H   0  0  0  0  0  0  0  0  0  0  0  0
   47.5331   13.6569   19.0916 H   0  0  0  0  0  0  0  0  0  0  0  0
   46.2416   12.7283   18.3176 H   0  0  0  0  0  0  0  0  0  0  0  0
  3  2  1  0
  4  2  2  0
  5  2  1  0
  6  5  1  0
  7  5  1  0
  8  7  1  0
  9  6  1  0
 10  9  1  0
 11  8  1  0
 13 12  2  0
 14 12  1  0
 15 12  1  0
 16 14  1  0
 17 14  1  0
 18 16  1  0
 19 17  1  0
 20 19  1  0
 21 18  1  0
  5 22  1  0
  6 23  1  0
  6 24  1  0
  7 25  1  0
  7 26  1  0
  8 27  1  0
  8 28  1  0
  9 29  1  0
  9 30  1  0
 10 31  1  0
 10 32  1  0
 10 33  1  0
 11 34  1  0
 11 35  1  0
 11 36  1  0
 14 37  1  0
 15 38  1  0
 16 39  1  0
 16 40  1  0
 17 41  1  0
 17 42  1  0
 18 43  1  0
 18 44  1  0
 19 45  1  0
 19 46  1  0
 20 47  1  0
 20 48  1  0
 20 49  1  0
 21 50  1  0
 21 51  1  0
 21 52  1  0
M  CHG  2   1   1   3  -1
M  END
> <Uni-Dock RESULT> 
ENERGY=   -4.104  LOWER_BOUND=    3.701  UPPER_BOUND=    6.319
INTER + INTRA:          -4.104
INTER:                  -4.104
INTRA:                   0.000
UNBOUND:                 0.000

$$$$

     RDKit          3D

 52 49  0  0  0  0  0  0  0  0999 V2000
   48.5405    5.2125   19.2408 Na  0  0  0  0  0 15  0  0  0  0  0  0
   49.0511    6.1382   18.5205 C   0  0  0  0  0  0  0  0  0  0  0  0
   48.3623    7.1372   18.1627 O   0  0  0  0  0  0  0  0  0  0  0  0
   50.2574    5.8648   18.2649 O   0  0  0  0  0  0  0  0  0  0  0  0
   48.2930    5.1207   19.3902 C   0  0  0  0  0  0  0  0  0  0  0  0
   48.9931    4.9637   20.7558 C   0  0  0  0  0  0  0  0  0  0  0  0
   48.2428    3.7553   18.6737 C   0  0  0  0  0  0  0  0  0  0  0  0
   47.2839    3.6854   17.4777 C   0  0  0  0  0  0  0  0  0  0  0  0
   48.7836    6.1306   21.7299 C   0  0  0  0  0  0  0  0  0  0  0  0
   49.6445    7.3518   21.4515 C   0  0  0  0  0  0  0  0  0  0  0  0
   47.8471    4.2482   16.1826 C   0  0  0  0  0  0  0  0  0  0  0  0
   48.2676    7.1461   18.7016 C   0  0  0  0  0  0  0  0  0  0  0  0
   49.2837    7.2847   18.0423 O   0  0  0  0  0  0  0  0  0  0  0  0
   47.8449    5.9241   19.4941 C   0  0  0  0  0  0  0  0  0  0  0  0
   47.3634    8.1433   18.7749 O   0  0  0  0  0  0  0  0  0  0  0  0
   46.7805    5.1329   18.7086 C   0  0  0  0  0  0  0  0  0  0  0  0
   49.0559    5.0783   19.9153 C   0  0  0  0  0  0  0  0  0  0  0  0
   47.2430    4.4742   17.4018 C   0  0  0  0  0  0  0  0  0  0  0  0
   49.9118    5.7728   20.9812 C   0  0  0  0  0  0  0  0  0  0  0  0
   51.0883    4.9044   21.3993 C   0  0  0  0  0  0  0  0  0  0  0  0
   47.7190    3.0389   17.5748 C   0  0  0  0  0  0  0  0  0  0  0  0
   47.2655    5.4677   19.5588 H   0  0  0  0  0  0  0  0  0  0  0  0
   48.5835    4.0726   21.2499 H   0  0  0  0  0  0  0  0  0  0  0  0
   50.0662    4.7732   20.6311 H   0  0  0  0  0  0  0  0  0  0  0  0
   49.2453    3.4319   18.3676 H   0  0  0  0  0  0  0  0  0  0  0  0
   47.8905    3.0063   19.3957 H   0  0  0  0  0  0  0  0  0  0  0  0
   47.0482    2.6284   17.3003 H   0  0  0  0  0  0  0  0  0  0  0  0
   46.3353    4.1788   17.7177 H   0  0  0  0  0  0  0  0  0  0  0  0
   47.7267    6.4192   21.7569 H   0  0  0  0  0  0  0  0  0  0  0  0
   49.0340    5.7733   22.7369 H   0  0  0  0  0  0  0  0  0  0  0  0
   49.3188    7.8828   20.5549 H   0  0  0  0  0  0  0  0  0  0  0  0
   50.6972    7.0767   21.3339 H   0  0  0  0  0  0  0  0  0  0  0  0
   49.5723    8.0562   22.2870 H   0  0  0  0  0  0  0  0  0  0  0  0
   48.8300    3.8218   15.9597 H   0  0  0  0  0  0  0  0  0  0  0  0
   47.9377    5.3357   16.2153 H   0  0  0  0  0  0  0  0  0  0  0  0
   47.1788    4.0052   15.3497 H   0  0  0  0  0  0  0  0  0  0  0  0
   47.3682    6.2935   20.4128 H   0  0  0  0  0  0  0  0  0  0  0  0
   47.7522    8.8544   18.2236 H   0  0  0  0  0  0  0  0  0  0  0  0
   46.3333    4.3777   19.3669 H   0  0  0  0  0  0  0  0  0  0  0  0
   45.9674    5.8267   18.4548 H   0  0  0  0  0  0  0  0  0  0  0  0
   49.6866    4.8522   19.0473 H   0  0  0  0  0  0  0  0  0  0  0  0
   48.7034    4.1230   20.3235 H   0  0  0  0  0  0  0  0  0  0  0  0
   48.0195    5.0672   16.9080 H   0  0  0  0  0  0  0  0  0  0  0  0
   46.3879    4.4511   16.7144 H   0  0  0  0  0  0  0  0  0  0  0  0
   50.2927    6.7278   20.6032 H   0  0  0  0  0  0  0  0  0  0  0  0
   49.2994    5.9941   21.8631 H   0  0  0  0  0  0  0  0  0  0  0  0
   50.7448    3.9531   21.8183 H   0  0  0  0  0  0  0  0  0  0  0  0
   51.7396    4.6894   20.5461 H   0  0  0  0  0  0  0  0  0  0  0  0
   51.6845    5.4154   22.1617 H   0  0  0  0  0  0  0  0  0  0  0  0
   48.6223    2.9752   18.1847 H   0  0  0  0  0  0  0  0  0  0  0  0
   47.9492    2.6021   16.5975 H   0  0  0  0  0  0  0  0  0  0  0  0
   46.9443    2.4227   18.0423 H   0  0  0  0  0  0  0  0  0  0  0  0
  3  2  1  0
  4  2  2  0
  5  2  1  0
  6  5  1  0
  7  5  1  0
  8  7  1  0
  9  6  1  0
 10  9  1  0
 11  8  1  0
 13 12  2  0
 14 12  1  0
 15 12  1  0
 16 14  1  0
 17 14  1  0
 18 16  1  0
 19 17  1  0
 20 19  1  0
 21 18  1  0
  5 22  1  0
  6 23  1  0
  6 24  1  0
  7 25  1  0
  7 26  1  0
  8 27  1  0
  8 28  1  0
  9 29  1  0
  9 30  1  0
 10 31  1  0
 10 32  1  0
 10 33  1  0
 11 34  1  0
 11 35  1  0
 11 36  1  0
 14 37  1  0
 15 38  1  0
 16 39  1  0
 16 40  1  0
 17 41  1  0
 17 42  1  0
 18 43  1  0
 18 44  1  0
 19 45  1  0
 19 46  1  0
 20 47  1  0
 20 48  1  0
 20 49  1  0
 21 50  1  0
 21 51  1  0
 21 52  1  0
M  CHG  2   1   1   3  -1
M  END
> <Uni-Dock RESULT> 
ENERGY=   -4.079  LOWER_BOUND=    1.850  UPPER_BOUND=    2.395
INTER + INTRA:          -4.079
INTER:                  -4.079
INTRA:                   0.000
UNBOUND:                 0.000

$$$$

     RDKit          3D

 52 49  0  0  0  0  0  0  0  0999 V2000
   48.5408    5.2124   19.2408 Na  0  0  0  0  0 15  0  0  0  0  0  0
   49.0515    6.1381   18.5205 C   0  0  0  0  0  0  0  0  0  0  0  0
   48.3626    7.1371   18.1627 O   0  0  0  0  0  0  0  0  0  0  0  0
   50.2577    5.8646   18.2648 O   0  0  0  0  0  0  0  0  0  0  0  0
   48.2933    5.1206   19.3902 C   0  0  0  0  0  0  0  0  0  0  0  0
   48.9935    4.9636   20.7558 C   0  0  0  0  0  0  0  0  0  0  0  0
   48.2430    3.7552   18.6737 C   0  0  0  0  0  0  0  0  0  0  0  0
   47.2841    3.6854   17.4778 C   0  0  0  0  0  0  0  0  0  0  0  0
   48.7841    6.1304   21.7299 C   0  0  0  0  0  0  0  0  0  0  0  0
   49.6450    7.3516   21.4515 C   0  0  0  0  0  0  0  0  0  0  0  0
   47.8472    4.2482   16.1826 C   0  0  0  0  0  0  0  0  0  0  0  0
   48.2680    7.1460   18.7017 C   0  0  0  0  0  0  0  0  0  0  0  0
   49.2841    7.2845   18.0422 O   0  0  0  0  0  0  0  0  0  0  0  0
   47.8453    5.9240   19.4941 C   0  0  0  0  0  0  0  0  0  0  0  0
   47.3638    8.1432   18.7750 O   0  0  0  0  0  0  0  0  0  0  0  0
   46.7807    5.1329   18.7087 C   0  0  0  0  0  0  0  0  0  0  0  0
   49.0562    5.0781   19.9153 C   0  0  0  0  0  0  0  0  0  0  0  0
   47.2432    4.4741   17.4019 C   0  0  0  0  0  0  0  0  0  0  0  0
   49.9122    5.7726   20.9811 C   0  0  0  0  0  0  0  0  0  0  0  0
   51.0887    4.9041   21.3992 C   0  0  0  0  0  0  0  0  0  0  0  0
   47.7191    3.0388   17.5748 C   0  0  0  0  0  0  0  0  0  0  0  0
   47.2658    5.4676   19.5589 H   0  0  0  0  0  0  0  0  0  0  0  0
   48.5839    4.0724   21.2499 H   0  0  0  0  0  0  0  0  0  0  0  0
   50.0666    4.7730   20.6310 H   0  0  0  0  0  0  0  0  0  0  0  0
   49.2455    3.4317   18.3675 H   0  0  0  0  0  0  0  0  0  0  0  0
   47.8907    3.0062   19.3957 H   0  0  0  0  0  0  0  0  0  0  0  0
   47.0483    2.6283   17.3004 H   0  0  0  0  0  0  0  0  0  0  0  0
   46.3355    4.1788   17.7178 H   0  0  0  0  0  0  0  0  0  0  0  0
   47.7272    6.4191   21.7570 H   0  0  0  0  0  0  0  0  0  0  0  0
   49.0346    5.7731   22.7368 H   0  0  0  0  0  0  0  0  0  0  0  0
   49.3193    7.8827   20.5549 H   0  0  0  0  0  0  0  0  0  0  0  0
   50.6977    7.0765   21.3338 H   0  0  0  0  0  0  0  0  0  0  0  0
   49.5730    8.0560   22.2870 H   0  0  0  0  0  0  0  0  0  0  0  0
   48.8301    3.8217   15.9597 H   0  0  0  0  0  0  0  0  0  0  0  0
   47.9378    5.3356   16.2153 H   0  0  0  0  0  0  0  0  0  0  0  0
   47.1788    4.0051   15.3498 H   0  0  0  0  0  0  0  0  0  0  0  0
   47.3687    6.2935   20.4129 H   0  0  0  0  0  0  0  0  0  0  0  0
   47.7526    8.8543   18.2237 H   0  0  0  0  0  0  0  0  0  0  0  0
   46.3336    4.3777   19.3670 H   0  0  0  0  0  0  0  0  0  0  0  0
   45.9677    5.8267   18.4550 H   0  0  0  0  0  0  0  0  0  0  0  0
   49.6868    4.8520   19.0473 H   0  0  0  0  0  0  0  0  0  0  0  0
   48.7037    4.1228   20.3235 H   0  0  0  0  0  0  0  0  0  0  0  0
   48.0196    5.0671   16.9080 H   0  0  0  0  0  0  0  0  0  0  0  0
   46.3881    4.4511   16.7145 H   0  0  0  0  0  0  0  0  0  0  0  0
   50.2932    6.7276   20.6031 H   0  0  0  0  0  0  0  0  0  0  0  0
   49.2999    5.9939   21.8631 H   0  0  0  0  0  0  0  0  0  0  0  0
   50.7452    3.9529   21.8182 H   0  0  0  0  0  0  0  0  0  0  0  0
   51.7400    4.6891   20.5459 H   0  0  0  0  0  0  0  0  0  0  0  0
   51.6850    5.4151   22.1615 H   0  0  0  0  0  0  0  0  0  0  0  0
   48.6225    2.9750   18.1847 H   0  0  0  0  0  0  0  0  0  0  0  0
   47.9493    2.6020   16.5975 H   0  0  0  0  0  0  0  0  0  0  0  0
   46.9444    2.4226   18.0423 H   0  0  0  0  0  0  0  0  0  0  0  0
  3  2  1  0
  4  2  2  0
  5  2  1  0
  6  5  1  0
  7  5  1  0
  8  7  1  0
  9  6  1  0
 10  9  1  0
 11  8  1  0
 13 12  2  0
 14 12  1  0
 15 12  1  0
 16 14  1  0
 17 14  1  0
 18 16  1  0
 19 17  1  0
 20 19  1  0
 21 18  1  0
  5 22  1  0
  6 23  1  0
  6 24  1  0
  7 25  1  0
  7 26  1  0
  8 27  1  0
  8 28  1  0
  9 29  1  0
  9 30  1  0
 10 31  1  0
 10 32  1  0
 10 33  1  0
 11 34  1  0
 11 35  1  0
 11 36  1  0
 14 37  1  0
 15 38  1  0
 16 39  1  0
 16 40  1  0
 17 41  1  0
 17 42  1  0
 18 43  1  0
 18 44  1  0
 19 45  1  0
 19 46  1  0
 20 47  1  0
 20 48  1  0
 20 49  1  0
 21 50  1  0
 21 51  1  0
 21 52  1  0
M  CHG  2   1   1   3  -1
M  END
> <Uni-Dock RESULT> 
ENERGY=   -4.079  LOWER_BOUND=    1.850  UPPER_BOUND=    2.395
INTER + INTRA:          -4.079
INTER:                  -4.079
INTRA:                   0.000
UNBOUND:                 0.000

$$$$

     RDKit          3D

 52 49  0  0  0  0  0  0  0  0999 V2000
   47.7731   11.2118   20.2642 Na  0  0  0  0  0 15  0  0  0  0  0  0
   48.9651   11.3564   20.7056 C   0  0  0  0  0  0  0  0  0  0  0  0
   49.2006   12.0845   21.7132 O   0  0  0  0  0  0  0  0  0  0  0  0
   49.7690   10.6943   19.9911 O   0  0  0  0  0  0  0  0  0  0  0  0
   47.4809   11.2802   20.3083 C   0  0  0  0  0  0  0  0  0  0  0  0
   46.9920    9.8180   20.3598 C   0  0  0  0  0  0  0  0  0  0  0  0
   47.2919   11.8398   18.8830 C   0  0  0  0  0  0  0  0  0  0  0  0
   47.4084   13.3653   18.7645 C   0  0  0  0  0  0  0  0  0  0  0  0
   46.7650    9.2594   21.7707 C   0  0  0  0  0  0  0  0  0  0  0  0
   48.0318    8.8404   22.4986 C   0  0  0  0  0  0  0  0  0  0  0  0
   48.8347   13.8860   18.6878 C   0  0  0  0  0  0  0  0  0  0  0  0
   48.8041   11.7672   21.9172 C   0  0  0  0  0  0  0  0  0  0  0  0
   49.9265   11.5217   21.5091 O   0  0  0  0  0  0  0  0  0  0  0  0
   47.4901   11.5125   21.2044 C   0  0  0  0  0  0  0  0  0  0  0  0
   48.6301   12.3395   23.1254 O   0  0  0  0  0  0  0  0  0  0  0  0
   46.9583   12.8274   20.6008 C   0  0  0  0  0  0  0  0  0  0  0  0
   47.6138   10.3711   20.1839 C   0  0  0  0  0  0  0  0  0  0  0  0
   47.7826   13.4398   19.4602 C   0  0  0  0  0  0  0  0  0  0  0  0
   47.7932    9.0041   20.8547 C   0  0  0  0  0  0  0  0  0  0  0  0
   47.8870    7.8893   19.8243 C   0  0  0  0  0  0  0  0  0  0  0  0
   47.3341   12.9974   18.0747 C   0  0  0  0  0  0  0  0  0  0  0  0
   46.8782   11.8780   21.0039 H   0  0  0  0  0  0  0  0  0  0  0  0
   46.0224    9.7632   19.8470 H   0  0  0  0  0  0  0  0  0  0  0  0
   47.6658    9.1553   19.8028 H   0  0  0  0  0  0  0  0  0  0  0  0
   47.9762   11.3572   18.1743 H   0  0  0  0  0  0  0  0  0  0  0  0
   46.2782   11.5809   18.5488 H   0  0  0  0  0  0  0  0  0  0  0  0
   46.8991   13.6681   17.8408 H   0  0  0  0  0  0  0  0  0  0  0  0
   46.8759   13.8553   19.5875 H   0  0  0  0  0  0  0  0  0  0  0  0
   46.2071    9.9793   22.3803 H   0  0  0  0  0  0  0  0  0  0  0  0
   46.1282    8.3704   21.6789 H   0  0  0  0  0  0  0  0  0  0  0  0
   48.6288    9.7019   22.8042 H   0  0  0  0  0  0  0  0  0  0  0  0
   48.6504    8.1879   21.8748 H   0  0  0  0  0  0  0  0  0  0  0  0
   47.7730    8.2889   23.4086 H   0  0  0  0  0  0  0  0  0  0  0  0
   49.4080   13.3590   17.9189 H   0  0  0  0  0  0  0  0  0  0  0  0
   49.3570   13.7878   19.6414 H   0  0  0  0  0  0  0  0  0  0  0  0
   48.8286   14.9508   18.4316 H   0  0  0  0  0  0  0  0  0  0  0  0
   46.7727   11.1892   21.9716 H   0  0  0  0  0  0  0  0  0  0  0  0
   49.5423   12.4516   23.4662 H   0  0  0  0  0  0  0  0  0  0  0  0
   45.9218   12.6806   20.2723 H   0  0  0  0  0  0  0  0  0  0  0  0
   46.9130   13.5717   21.4074 H   0  0  0  0  0  0  0  0  0  0  0  0
   48.4608   10.5486   19.5105 H   0  0  0  0  0  0  0  0  0  0  0  0
   46.7060   10.3380   19.5688 H   0  0  0  0  0  0  0  0  0  0  0  0
   48.8514   13.2400   19.5873 H   0  0  0  0  0  0  0  0  0  0  0  0
   47.6646   14.5299   19.5060 H   0  0  0  0  0  0  0  0  0  0  0  0
   48.6999    8.9958   21.4695 H   0  0  0  0  0  0  0  0  0  0  0  0
   46.9469    8.8038   21.5221 H   0  0  0  0  0  0  0  0  0  0  0  0
   46.9798    7.8422   19.2133 H   0  0  0  0  0  0  0  0  0  0  0  0
   48.7427    8.0417   19.1587 H   0  0  0  0  0  0  0  0  0  0  0  0
   48.0116    6.9226   20.3221 H   0  0  0  0  0  0  0  0  0  0  0  0
   47.4930   11.9296   17.9118 H   0  0  0  0  0  0  0  0  0  0  0  0
   47.9022   13.5361   17.3092 H   0  0  0  0  0  0  0  0  0  0  0  0
   46.2727   13.2150   17.9182 H   0  0  0  0  0  0  0  0  0  0  0  0
  3  2  1  0
  4  2  2  0
  5  2  1  0
  6  5  1  0
  7  5  1  0
  8  7  1  0
  9  6  1  0
 10  9  1  0
 11  8  1  0
 13 12  2  0
 14 12  1  0
 15 12  1  0
 16 14  1  0
 17 14  1  0
 18 16  1  0
 19 17  1  0
 20 19  1  0
 21 18  1  0
  5 22  1  0
  6 23  1  0
  6 24  1  0
  7 25  1  0
  7 26  1  0
  8 27  1  0
  8 28  1  0
  9 29  1  0
  9 30  1  0
 10 31  1  0
 10 32  1  0
 10 33  1  0
 11 34  1  0
 11 35  1  0
 11 36  1  0
 14 37  1  0
 15 38  1  0
 16 39  1  0
 16 40  1  0
 17 41  1  0
 17 42  1  0
 18 43  1  0
 18 44  1  0
 19 45  1  0
 19 46  1  0
 20 47  1  0
 20 48  1  0
 20 49  1  0
 21 50  1  0
 21 51  1  0
 21 52  1  0
M  CHG  2   1   1   3  -1
M  END
> <Uni-Dock RESULT> 
ENERGY=   -4.046  LOWER_BOUND=    4.748  UPPER_BOUND=    7.185
INTER + INTRA:          -4.046
INTER:                  -4.046
INTRA:                   0.000
UNBOUND:                 0.000

$$$$

     RDKit          3D

 52 49  0  0  0  0  0  0  0  0999 V2000
   45.4917    5.8236   12.3060 Na  0  0  0  0  0 15  0  0  0  0  0  0
   45.2694    6.2060   11.1056 C   0  0  0  0  0  0  0  0  0  0  0  0
   44.1940    6.7991   10.8015 O   0  0  0  0  0  0  0  0  0  0  0  0
   46.2455    5.8906   10.3687 O   0  0  0  0  0  0  0  0  0  0  0  0
   45.3861    5.8207   12.5903 C   0  0  0  0  0  0  0  0  0  0  0  0
   46.6268    6.4900   13.2166 C   0  0  0  0  0  0  0  0  0  0  0  0
   45.5006    4.2881   12.7252 C   0  0  0  0  0  0  0  0  0  0  0  0
   44.2011    3.5151   12.4636 C   0  0  0  0  0  0  0  0  0  0  0  0
   46.4820    7.9918   13.4957 C   0  0  0  0  0  0  0  0  0  0  0  0
   46.6428    8.8824   12.2746 C   0  0  0  0  0  0  0  0  0  0  0  0
   43.8923    3.2771   10.9941 C   0  0  0  0  0  0  0  0  0  0  0  0
   44.3531    7.1051   11.2264 C   0  0  0  0  0  0  0  0  0  0  0  0
   44.8490    6.8944   10.1327 O   0  0  0  0  0  0  0  0  0  0  0  0
   44.7831    6.5225   12.5589 C   0  0  0  0  0  0  0  0  0  0  0  0
   43.2930    7.9293   11.3449 O   0  0  0  0  0  0  0  0  0  0  0  0
   43.8306    5.3799   12.9628 C   0  0  0  0  0  0  0  0  0  0  0  0
   46.2640    6.1149   12.5449 C   0  0  0  0  0  0  0  0  0  0  0  0
   43.8589    4.1220   12.0839 C   0  0  0  0  0  0  0  0  0  0  0  0
   47.2032    7.3260   12.4968 C   0  0  0  0  0  0  0  0  0  0  0  0
   48.6622    6.8965   12.5099 C   0  0  0  0  0  0  0  0  0  0  0  0
   44.8282    3.0552   12.5727 C   0  0  0  0  0  0  0  0  0  0  0  0
   44.4931    6.1560   13.1331 H   0  0  0  0  0  0  0  0  0  0  0  0
   46.8195    6.0134   14.1871 H   0  0  0  0  0  0  0  0  0  0  0  0
   47.5225    6.3106   12.6092 H   0  0  0  0  0  0  0  0  0  0  0  0
   46.3035    3.8938   12.0902 H   0  0  0  0  0  0  0  0  0  0  0  0
   45.7927    4.0596   13.7590 H   0  0  0  0  0  0  0  0  0  0  0  0
   44.2956    2.5319   12.9418 H   0  0  0  0  0  0  0  0  0  0  0  0
   43.3540    4.0150   12.9467 H   0  0  0  0  0  0  0  0  0  0  0  0
   45.5220    8.1981   13.9823 H   0  0  0  0  0  0  0  0  0  0  0  0
   47.2618    8.2740   14.2145 H   0  0  0  0  0  0  0  0  0  0  0  0
   45.7896    8.8024   11.5981 H   0  0  0  0  0  0  0  0  0  0  0  0
   47.5543    8.6363   11.7212 H   0  0  0  0  0  0  0  0  0  0  0  0
   46.7105    9.9305   12.5849 H   0  0  0  0  0  0  0  0  0  0  0  0
   44.7520    2.8436   10.4739 H   0  0  0  0  0  0  0  0  0  0  0  0
   43.6030    4.1976   10.4834 H   0  0  0  0  0  0  0  0  0  0  0  0
   43.0545    2.5783   10.8986 H   0  0  0  0  0  0  0  0  0  0  0  0
   44.6710    7.3227   13.3038 H   0  0  0  0  0  0  0  0  0  0  0  0
   43.1203    8.2241   10.4261 H   0  0  0  0  0  0  0  0  0  0  0  0
   44.0182    5.1062   14.0086 H   0  0  0  0  0  0  0  0  0  0  0  0
   42.8055    5.7737   12.9367 H   0  0  0  0  0  0  0  0  0  0  0  0
   46.4760    5.4686   11.6849 H   0  0  0  0  0  0  0  0  0  0  0  0
   46.4879    5.5397   13.4517 H   0  0  0  0  0  0  0  0  0  0  0  0
   44.0727    4.3689   11.0390 H   0  0  0  0  0  0  0  0  0  0  0  0
   42.8553    3.6782   12.0973 H   0  0  0  0  0  0  0  0  0  0  0  0
   47.0164    7.9193   11.5949 H   0  0  0  0  0  0  0  0  0  0  0  0
   47.0143    7.9771   13.3582 H   0  0  0  0  0  0  0  0  0  0  0  0
   48.8968    6.3311   13.4175 H   0  0  0  0  0  0  0  0  0  0  0  0
   48.8939    6.2685   11.6437 H   0  0  0  0  0  0  0  0  0  0  0  0
   49.3158    7.7738   12.4782 H   0  0  0  0  0  0  0  0  0  0  0  0
   45.8672    3.3859   12.5166 H   0  0  0  0  0  0  0  0  0  0  0  0
   44.7345    2.1554   11.9559 H   0  0  0  0  0  0  0  0  0  0  0  0
   44.6122    2.7744   13.6086 H   0  0  0  0  0  0  0  0  0  0  0  0
  3  2  1  0
  4  2  2  0
  5  2  1  0
  6  5  1  0
  7  5  1  0
  8  7  1  0
  9  6  1  0
 10  9  1  0
 11  8  1  0
 13 12  2  0
 14 12  1  0
 15 12  1  0
 16 14  1  0
 17 14  1  0
 18 16  1  0
 19 17  1  0
 20 19  1  0
 21 18  1  0
  5 22  1  0
  6 23  1  0
  6 24  1  0
  7 25  1  0
  7 26  1  0
  8 27  1  0
  8 28  1  0
  9 29  1  0
  9 30  1  0
 10 31  1  0
 10 32  1  0
 10 33  1  0
 11 34  1  0
 11 35  1  0
 11 36  1  0
 14 37  1  0
 15 38  1  0
 16 39  1  0
 16 40  1  0
 17 41  1  0
 17 42  1  0
 18 43  1  0
 18 44  1  0
 19 45  1  0
 19 46  1  0
 20 47  1  0
 20 48  1  0
 20 49  1  0
 21 50  1  0
 21 51  1  0
 21 52  1  0
M  CHG  2   1   1   3  -1
M  END
> <Uni-Dock RESULT> 
ENERGY=   -4.017  LOWER_BOUND=    6.222  UPPER_BOUND=    7.248
INTER + INTRA:          -4.017
INTER:                  -4.017
INTRA:                   0.000
UNBOUND:                 0.000

$$$$

     RDKit          3D

 52 49  0  0  0  0  0  0  0  0999 V2000
   49.2866    4.6385   18.8672 Na  0  0  0  0  0 15  0  0  0  0  0  0
   48.5885    5.6982   18.7050 C   0  0  0  0  0  0  0  0  0  0  0  0
   47.4918    5.8535   19.3164 O   0  0  0  0  0  0  0  0  0  0  0  0
   49.1641    6.4681   17.8856 O   0  0  0  0  0  0  0  0  0  0  0  0
   49.3092    4.3753   19.0162 C   0  0  0  0  0  0  0  0  0  0  0  0
   50.7063    4.6578   19.6060 C   0  0  0  0  0  0  0  0  0  0  0  0
   49.4504    3.5408   17.7262 C   0  0  0  0  0  0  0  0  0  0  0  0
   48.1507    2.8978   17.2242 C   0  0  0  0  0  0  0  0  0  0  0  0
   50.7100    5.1394   21.0628 C   0  0  0  0  0  0  0  0  0  0  0  0
   50.3576    6.6064   21.2468 C   0  0  0  0  0  0  0  0  0  0  0  0
   47.2541    3.8278   16.4228 C   0  0  0  0  0  0  0  0  0  0  0  0
   47.8175    5.7283   19.7380 C   0  0  0  0  0  0  0  0  0  0  0  0
   47.8091    6.6615   18.9534 O   0  0  0  0  0  0  0  0  0  0  0  0
   48.7570    4.5379   19.7412 C   0  0  0  0  0  0  0  0  0  0  0  0
   46.9138    5.6716   20.7368 O   0  0  0  0  0  0  0  0  0  0  0  0
   48.0456    3.3077   19.1438 C   0  0  0  0  0  0  0  0  0  0  0  0
   50.0917    4.8707   19.0578 C   0  0  0  0  0  0  0  0  0  0  0  0
   47.6889    3.3802   17.6528 C   0  0  0  0  0  0  0  0  0  0  0  0
   50.9402    5.8497   19.8780 C   0  0  0  0  0  0  0  0  0  0  0  0
   52.2661    6.1423   19.1927 C   0  0  0  0  0  0  0  0  0  0  0  0
   48.7604    2.8039   16.7383 C   0  0  0  0  0  0  0  0  0  0  0  0
   48.7284    3.7980   19.7469 H   0  0  0  0  0  0  0  0  0  0  0  0
   51.2804    3.7217   19.5895 H   0  0  0  0  0  0  0  0  0  0  0  0
   51.2646    5.3652   18.9804 H   0  0  0  0  0  0  0  0  0  0  0  0
   49.9102    4.1293   16.9226 H   0  0  0  0  0  0  0  0  0  0  0  0
   50.1443    2.7145   17.9312 H   0  0  0  0  0  0  0  0  0  0  0  0
   48.4239    2.0610   16.5688 H   0  0  0  0  0  0  0  0  0  0  0  0
   47.5888    2.4665   18.0604 H   0  0  0  0  0  0  0  0  0  0  0  0
   50.0432    4.5179   21.6712 H   0  0  0  0  0  0  0  0  0  0  0  0
   51.7220    4.9910   21.4604 H   0  0  0  0  0  0  0  0  0  0  0  0
   49.2991    6.7969   21.0592 H   0  0  0  0  0  0  0  0  0  0  0  0
   50.9520    7.2433   20.5844 H   0  0  0  0  0  0  0  0  0  0  0  0
   50.5617    6.9115   22.2787 H   0  0  0  0  0  0  0  0  0  0  0  0
   47.8128    4.3263   15.6246 H   0  0  0  0  0  0  0  0  0  0  0  0
   46.7896    4.5896   17.0519 H   0  0  0  0  0  0  0  0  0  0  0  0
   46.4441    3.2551   15.9587 H   0  0  0  0  0  0  0  0  0  0  0  0
   48.9758    4.3117   20.7942 H   0  0  0  0  0  0  0  0  0  0  0  0
   46.3773    6.4828   20.6149 H   0  0  0  0  0  0  0  0  0  0  0  0
   48.6490    2.4122   19.3380 H   0  0  0  0  0  0  0  0  0  0  0  0
   47.1081    3.1616   19.6973 H   0  0  0  0  0  0  0  0  0  0  0  0
   49.9174    5.3001   18.0641 H   0  0  0  0  0  0  0  0  0  0  0  0
   50.6663    3.9463   18.9205 H   0  0  0  0  0  0  0  0  0  0  0  0
   47.4503    4.4042   17.3480 H   0  0  0  0  0  0  0  0  0  0  0  0
   46.7771    2.7904   17.4949 H   0  0  0  0  0  0  0  0  0  0  0  0
   50.4016    6.7922   20.0250 H   0  0  0  0  0  0  0  0  0  0  0  0
   51.1361    5.4296   20.8713 H   0  0  0  0  0  0  0  0  0  0  0  0
   52.8510    5.2261   19.0618 H   0  0  0  0  0  0  0  0  0  0  0  0
   52.1074    6.5929   18.2077 H   0  0  0  0  0  0  0  0  0  0  0  0
   52.8578    6.8396   19.7940 H   0  0  0  0  0  0  0  0  0  0  0  0
   49.6853    3.3832   16.7713 H   0  0  0  0  0  0  0  0  0  0  0  0
   48.4067    2.8059   15.7020 H   0  0  0  0  0  0  0  0  0  0  0  0
   48.9928    1.7692   17.0102 H   0  0  0  0  0  0  0  0  0  0  0  0
  3  2  1  0
  4  2  2  0
  5  2  1  0
  6  5  1  0
  7  5  1  0
  8  7  1  0
  9  6  1  0
 10  9  1  0
 11  8  1  0
 13 12  2  0
 14 12  1  0
 15 12  1  0
 16 14  1  0
 17 14  1  0
 18 16  1  0
 19 17  1  0
 20 19  1  0
 21 18  1  0
  5 22  1  0
  6 23  1  0
  6 24  1  0
  7 25  1  0
  7 26  1  0
  8 27  1  0
  8 28  1  0
  9 29  1  0
  9 30  1  0
 10 31  1  0
 10 32  1  0
 10 33  1  0
 11 34  1  0
 11 35  1  0
 11 36  1  0
 14 37  1  0
 15 38  1  0
 16 39  1  0
 16 40  1  0
 17 41  1  0
 17 42  1  0
 18 43  1  0
 18 44  1  0
 19 45  1  0
 19 46  1  0
 20 47  1  0
 20 48  1  0
 20 49  1  0
 21 50  1  0
 21 51  1  0
 21 52  1  0
M  CHG  2   1   1   3  -1
M  END
> <Uni-Dock RESULT> 
ENERGY=   -3.822  LOWER_BOUND=    1.938  UPPER_BOUND=    3.121
INTER + INTRA:          -3.822
INTER:                  -3.822
INTRA:                   0.000
UNBOUND:                 0.000

$$$$

     RDKit          3D

 52 49  0  0  0  0  0  0  0  0999 V2000
   41.2961   11.0474   10.8765 Na  0  0  0  0  0 15  0  0  0  0  0  0
   41.5080   11.9241   11.7837 C   0  0  0  0  0  0  0  0  0  0  0  0
   42.0140   13.0473   11.4959 O   0  0  0  0  0  0  0  0  0  0  0  0
   41.1496   11.4719   12.9073 O   0  0  0  0  0  0  0  0  0  0  0  0
   41.3095   10.9878   10.5793 C   0  0  0  0  0  0  0  0  0  0  0  0
   39.8189   10.6182   10.4343 C   0  0  0  0  0  0  0  0  0  0  0  0
   42.1451    9.7051   10.7710 C   0  0  0  0  0  0  0  0  0  0  0  0
   43.6578    9.8827   10.5847 C   0  0  0  0  0  0  0  0  0  0  0  0
   38.9271   11.7306    9.8670 C   0  0  0  0  0  0  0  0  0  0  0  0
   38.5420   12.8075   10.8680 C   0  0  0  0  0  0  0  0  0  0  0  0
   44.3838   10.4351   11.8009 C   0  0  0  0  0  0  0  0  0  0  0  0
   41.6045   13.0331   11.1331 C   0  0  0  0  0  0  0  0  0  0  0  0
   41.6239   13.0469   12.3521 O   0  0  0  0  0  0  0  0  0  0  0  0
   41.3307   11.8453   10.2310 C   0  0  0  0  0  0  0  0  0  0  0  0
   41.8556   14.1596   10.4365 O   0  0  0  0  0  0  0  0  0  0  0  0
   42.6569   11.3018    9.6637 C   0  0  0  0  0  0  0  0  0  0  0  0
   40.4817   10.7808   10.9419 C   0  0  0  0  0  0  0  0  0  0  0  0
   43.6257   10.6706   10.6729 C   0  0  0  0  0  0  0  0  0  0  0  0
   39.0388   11.2440   11.1755 C   0  0  0  0  0  0  0  0  0  0  0  0
   38.2135   10.1632   11.8566 C   0  0  0  0  0  0  0  0  0  0  0  0
   43.4498    9.1673   10.8327 C   0  0  0  0  0  0  0  0  0  0  0  0
   41.6394   11.4887    9.6602 H   0  0  0  0  0  0  0  0  0  0  0  0
   39.7419    9.7749    9.7350 H   0  0  0  0  0  0  0  0  0  0  0  0
   39.4052   10.2604   11.3852 H   0  0  0  0  0  0  0  0  0  0  0  0
   41.9409    9.2415   11.7440 H   0  0  0  0  0  0  0  0  0  0  0  0
   41.8247    8.9757   10.0150 H   0  0  0  0  0  0  0  0  0  0  0  0
   44.0856    8.8955   10.3683 H   0  0  0  0  0  0  0  0  0  0  0  0
   43.8652   10.5093    9.7098 H   0  0  0  0  0  0  0  0  0  0  0  0
   39.4007   12.1892    8.9915 H   0  0  0  0  0  0  0  0  0  0  0  0
   37.9996   11.2650    9.5105 H   0  0  0  0  0  0  0  0  0  0  0  0
   39.3887   13.4485   11.1212 H   0  0  0  0  0  0  0  0  0  0  0  0
   38.1454   12.3694   11.7891 H   0  0  0  0  0  0  0  0  0  0  0  0
   37.7664   13.4520   10.4411 H   0  0  0  0  0  0  0  0  0  0  0  0
   44.1344    9.8674   12.7027 H   0  0  0  0  0  0  0  0  0  0  0  0
   44.1481   11.4869   11.9742 H   0  0  0  0  0  0  0  0  0  0  0  0
   45.4664   10.3677   11.6502 H   0  0  0  0  0  0  0  0  0  0  0  0
   40.7408   12.2222    9.3838 H   0  0  0  0  0  0  0  0  0  0  0  0
   42.0184   14.8335   11.1294 H   0  0  0  0  0  0  0  0  0  0  0  0
   42.4398   10.5866    8.8605 H   0  0  0  0  0  0  0  0  0  0  0  0
   43.1836   12.1381    9.1842 H   0  0  0  0  0  0  0  0  0  0  0  0
   40.9287   10.5154   11.9073 H   0  0  0  0  0  0  0  0  0  0  0  0
   40.4579    9.8710   10.3294 H   0  0  0  0  0  0  0  0  0  0  0  0
   43.5596   11.1594   11.6502 H   0  0  0  0  0  0  0  0  0  0  0  0
   44.6478   10.8403   10.3112 H   0  0  0  0  0  0  0  0  0  0  0  0
   39.0226   12.1465   11.7962 H   0  0  0  0  0  0  0  0  0  0  0  0
   38.5714   11.5005   10.2177 H   0  0  0  0  0  0  0  0  0  0  0  0
   38.1753    9.2552   11.2463 H   0  0  0  0  0  0  0  0  0  0  0  0
   38.6358    9.9042   12.8328 H   0  0  0  0  0  0  0  0  0  0  0  0
   37.1875   10.5112   12.0118 H   0  0  0  0  0  0  0  0  0  0  0  0
   42.4816    8.9097   11.2668 H   0  0  0  0  0  0  0  0  0  0  0  0
   44.2250    8.7695   11.4958 H   0  0  0  0  0  0  0  0  0  0  0  0
   43.5407    8.6573    9.8683 H   0  0  0  0  0  0  0  0  0  0  0  0
  3  2  1  0
  4  2  2  0
  5  2  1  0
  6  5  1  0
  7  5  1  0
  8  7  1  0
  9  6  1  0
 10  9  1  0
 11  8  1  0
 13 12  2  0
 14 12  1  0
 15 12  1  0
 16 14  1  0
 17 14  1  0
 18 16  1  0
 19 17  1  0
 20 19  1  0
 21 18  1  0
  5 22  1  0
  6 23  1  0
  6 24  1  0
  7 25  1  0
  7 26  1  0
  8 27  1  0
  8 28  1  0
  9 29  1  0
  9 30  1  0
 10 31  1  0
 10 32  1  0
 10 33  1  0
 11 34  1  0
 11 35  1  0
 11 36  1  0
 14 37  1  0
 15 38  1  0
 16 39  1  0
 16 40  1  0
 17 41  1  0
 17 42  1  0
 18 43  1  0
 18 44  1  0
 19 45  1  0
 19 46  1  0
 20 47  1  0
 20 48  1  0
 20 49  1  0
 21 50  1  0
 21 51  1  0
 21 52  1  0
M  CHG  2   1   1   3  -1
M  END
> <Uni-Dock RESULT> 
ENERGY=   -3.750  LOWER_BOUND=   10.846  UPPER_BOUND=   11.922
INTER + INTRA:          -3.750
INTER:                  -3.750
INTRA:                   0.000
UNBOUND:                 0.000

$$$$

     RDKit          3D

 52 49  0  0  0  0  0  0  0  0999 V2000
   48.4650    5.6959   18.5916 Na  0  0  0  0  0 15  0  0  0  0  0  0
   47.9930    5.2666   19.7004 C   0  0  0  0  0  0  0  0  0  0  0  0
   48.6860    4.5281   20.4587 O   0  0  0  0  0  0  0  0  0  0  0  0
   46.8119    5.6869   19.8537 O   0  0  0  0  0  0  0  0  0  0  0  0
   48.7084    5.7044   18.4108 C   0  0  0  0  0  0  0  0  0  0  0  0
   48.7918    7.2434   18.3463 C   0  0  0  0  0  0  0  0  0  0  0  0
   47.9408    5.1751   17.1817 C   0  0  0  0  0  0  0  0  0  0  0  0
   48.0762    3.6670   16.9326 C   0  0  0  0  0  0  0  0  0  0  0  0
   49.8328    7.8762   19.2791 C   0  0  0  0  0  0  0  0  0  0  0  0
   49.4017    7.9806   20.7329 C   0  0  0  0  0  0  0  0  0  0  0  0
   47.1526    2.8019   17.7752 C   0  0  0  0  0  0  0  0  0  0  0  0
   49.0380    4.9401   20.3817 C   0  0  0  0  0  0  0  0  0  0  0  0
   47.9376    4.8846   20.9039 O   0  0  0  0  0  0  0  0  0  0  0  0
   49.3800    5.4997   19.0143 C   0  0  0  0  0  0  0  0  0  0  0  0
   50.1209    4.4605   21.0254 O   0  0  0  0  0  0  0  0  0  0  0  0
   49.5734    4.3466   18.0098 C   0  0  0  0  0  0  0  0  0  0  0  0
   48.3524    6.5473   18.5603 C   0  0  0  0  0  0  0  0  0  0  0  0
   48.3269    3.5180   17.6706 C   0  0  0  0  0  0  0  0  0  0  0  0
   48.4363    7.8413   19.3785 C   0  0  0  0  0  0  0  0  0  0  0  0
   47.4272    8.8704   18.8926 C   0  0  0  0  0  0  0  0  0  0  0  0
   47.5680    4.0243   16.4522 C   0  0  0  0  0  0  0  0  0  0  0  0
   49.7267    5.2953   18.3928 H   0  0  0  0  0  0  0  0  0  0  0  0
   49.0795    7.5280   17.3253 H   0  0  0  0  0  0  0  0  0  0  0  0
   47.8102    7.7009   18.5217 H   0  0  0  0  0  0  0  0  0  0  0  0
   46.8803    5.4519   17.2280 H   0  0  0  0  0  0  0  0  0  0  0  0
   48.3447    5.6726   16.2897 H   0  0  0  0  0  0  0  0  0  0  0  0
   47.8304    3.4793   15.8796 H   0  0  0  0  0  0  0  0  0  0  0  0
   49.1154    3.3476   17.0704 H   0  0  0  0  0  0  0  0  0  0  0  0
   50.7837    7.3356   19.2113 H   0  0  0  0  0  0  0  0  0  0  0  0
   50.0277    8.8944   18.9191 H   0  0  0  0  0  0  0  0  0  0  0  0
   49.3793    7.0044   21.2212 H   0  0  0  0  0  0  0  0  0  0  0  0
   48.4126    8.4404   20.8214 H   0  0  0  0  0  0  0  0  0  0  0  0
   50.1124    8.6021   21.2879 H   0  0  0  0  0  0  0  0  0  0  0  0
   46.1165    3.1481   17.7097 H   0  0  0  0  0  0  0  0  0  0  0  0
   47.4506    2.7891   18.8254 H   0  0  0  0  0  0  0  0  0  0  0  0
   47.1842    1.7670   17.4184 H   0  0  0  0  0  0  0  0  0  0  0  0
   50.3467    6.0124   19.1163 H   0  0  0  0  0  0  0  0  0  0  0  0
   49.7622    4.1307   21.8759 H   0  0  0  0  0  0  0  0  0  0  0  0
   50.0186    4.7416   17.0882 H   0  0  0  0  0  0  0  0  0  0  0  0
   50.3190    3.6581   18.4302 H   0  0  0  0  0  0  0  0  0  0  0  0
   47.3351    6.1453   18.6373 H   0  0  0  0  0  0  0  0  0  0  0  0
   48.5300    6.7927   17.5060 H   0  0  0  0  0  0  0  0  0  0  0  0
   47.6496    3.4451   18.5275 H   0  0  0  0  0  0  0  0  0  0  0  0
   48.6528    2.4943   17.4465 H   0  0  0  0  0  0  0  0  0  0  0  0
   48.2510    7.6363   20.4386 H   0  0  0  0  0  0  0  0  0  0  0  0
   49.4444    8.2649   19.3014 H   0  0  0  0  0  0  0  0  0  0  0  0
   47.6046    9.1293   17.8438 H   0  0  0  0  0  0  0  0  0  0  0  0
   46.4046    8.4908   18.9851 H   0  0  0  0  0  0  0  0  0  0  0  0
   47.5045    9.7866   19.4861 H   0  0  0  0  0  0  0  0  0  0  0  0
   47.1361    5.0133   16.6178 H   0  0  0  0  0  0  0  0  0  0  0  0
   46.7463    3.3410   16.2142 H   0  0  0  0  0  0  0  0  0  0  0  0
   48.2230    4.0774   15.5767 H   0  0  0  0  0  0  0  0  0  0  0  0
  3  2  1  0
  4  2  2  0
  5  2  1  0
  6  5  1  0
  7  5  1  0
  8  7  1  0
  9  6  1  0
 10  9  1  0
 11  8  1  0
 13 12  2  0
 14 12  1  0
 15 12  1  0
 16 14  1  0
 17 14  1  0
 18 16  1  0
 19 17  1  0
 20 19  1  0
 21 18  1  0
  5 22  1  0
  6 23  1  0
  6 24  1  0
  7 25  1  0
  7 26  1  0
  8 27  1  0
  8 28  1  0
  9 29  1  0
  9 30  1  0
 10 31  1  0
 10 32  1  0
 10 33  1  0
 11 34  1  0
 11 35  1  0
 11 36  1  0
 14 37  1  0
 15 38  1  0
 16 39  1  0
 16 40  1  0
 17 41  1  0
 17 42  1  0
 18 43  1  0
 18 44  1  0
 19 45  1  0
 19 46  1  0
 20 47  1  0
 20 48  1  0
 20 49  1  0
 21 50  1  0
 21 51  1  0
 21 52  1  0
M  CHG  2   1   1   3  -1
M  END
> <Uni-Dock RESULT> 
ENERGY=   -3.710  LOWER_BOUND=    1.894  UPPER_BOUND=    2.493
INTER + INTRA:          -3.710
INTER:                  -3.710
INTRA:                   0.000
UNBOUND:                 0.000

$$$$
