
     RDKit          3D

 52 49  0  0  0  0  0  0  0  0999 V2000
   44.6836    5.7082   11.2998 Na  0  0  0  0  0 15  0  0  0  0  0  0
   43.8818    5.0280   12.4549 C   0  0  0  0  0  0  0  0  0  0  0  0
   44.4807    4.5301   13.4518 O   0  0  0  0  0  0  0  0  0  0  0  0
   42.6437    5.1839   12.2612 O   0  0  0  0  0  0  0  0  0  0  0  0
   44.8150    5.5150   11.3277 C   0  0  0  0  0  0  0  0  0  0  0  0
   44.3833    4.9880    9.9475 C   0  0  0  0  0  0  0  0  0  0  0  0
   44.7782    7.0566   11.3375 C   0  0  0  0  0  0  0  0  0  0  0  0
   45.3827    7.6665   12.6071 C   0  0  0  0  0  0  0  0  0  0  0  0
   44.7805    3.5335    9.6662 C   0  0  0  0  0  0  0  0  0  0  0  0
   44.0140    2.4983   10.4717 C   0  0  0  0  0  0  0  0  0  0  0  0
   45.4132    9.1856   12.5317 C   0  0  0  0  0  0  0  0  0  0  0  0
   43.2590    5.5181   12.1317 C   0  0  0  0  0  0  0  0  0  0  0  0
   43.3881    4.9760   13.2165 O   0  0  0  0  0  0  0  0  0  0  0  0
   44.3570    5.8374   11.1403 C   0  0  0  0  0  0  0  0  0  0  0  0
   42.0430    5.9028   11.6989 O   0  0  0  0  0  0  0  0  0  0  0  0
   45.0464    4.5365   10.6937 C   0  0  0  0  0  0  0  0  0  0  0  0
   45.3733    6.7966   11.7839 C   0  0  0  0  0  0  0  0  0  0  0  0
   44.1226    3.6346    9.8689 C   0  0  0  0  0  0  0  0  0  0  0  0
   44.7805    8.1815   12.0622 C   0  0  0  0  0  0  0  0  0  0  0  0
   45.8217    9.1234   12.6468 C   0  0  0  0  0  0  0  0  0  0  0  0
   44.8467    2.3835    9.3958 C   0  0  0  0  0  0  0  0  0  0  0  0
   45.8425    5.1855   11.5291 H   0  0  0  0  0  0  0  0  0  0  0  0
   43.3033    5.1066    9.7977 H   0  0  0  0  0  0  0  0  0  0  0  0
   44.8654    5.5992    9.1731 H   0  0  0  0  0  0  0  0  0  0  0  0
   43.7484    7.4164   11.2153 H   0  0  0  0  0  0  0  0  0  0  0  0
   45.3438    7.4313   10.4746 H   0  0  0  0  0  0  0  0  0  0  0  0
   44.8022    7.3718   13.4879 H   0  0  0  0  0  0  0  0  0  0  0  0
   46.4038    7.2941   12.7488 H   0  0  0  0  0  0  0  0  0  0  0  0
   45.8566    3.4008    9.8285 H   0  0  0  0  0  0  0  0  0  0  0  0
   44.5997    3.3352    8.6023 H   0  0  0  0  0  0  0  0  0  0  0  0
   44.3025    2.5145   11.5255 H   0  0  0  0  0  0  0  0  0  0  0  0
   44.2320    1.4944   10.0925 H   0  0  0  0  0  0  0  0  0  0  0  0
   42.9340    2.6587   10.3987 H   0  0  0  0  0  0  0  0  0  0  0  0
   46.0190    9.5250   11.6854 H   0  0  0  0  0  0  0  0  0  0  0  0
   45.8460    9.6017   13.4469 H   0  0  0  0  0  0  0  0  0  0  0  0
   44.4035    9.5928   12.4175 H   0  0  0  0  0  0  0  0  0  0  0  0
   43.9183    6.3253   10.2605 H   0  0  0  0  0  0  0  0  0  0  0  0
   41.4396    5.6397   12.4252 H   0  0  0  0  0  0  0  0  0  0  0  0
   45.9266    4.7849   10.0872 H   0  0  0  0  0  0  0  0  0  0  0  0
   45.4095    3.9817   11.5684 H   0  0  0  0  0  0  0  0  0  0  0  0
   45.7550    6.3699   12.7204 H   0  0  0  0  0  0  0  0  0  0  0  0
   46.2344    6.9122   11.1134 H   0  0  0  0  0  0  0  0  0  0  0  0
   43.7485    4.1837    8.9971 H   0  0  0  0  0  0  0  0  0  0  0  0
   43.2521    3.3352   10.4630 H   0  0  0  0  0  0  0  0  0  0  0  0
   43.9419    8.1034   12.7630 H   0  0  0  0  0  0  0  0  0  0  0  0
   44.3891    8.6118   11.1331 H   0  0  0  0  0  0  0  0  0  0  0  0
   46.2127    8.7366   13.5934 H   0  0  0  0  0  0  0  0  0  0  0  0
   45.3791   10.1059   12.8380 H   0  0  0  0  0  0  0  0  0  0  0  0
   46.6611    9.2576   11.9570 H   0  0  0  0  0  0  0  0  0  0  0  0
   45.7038    2.6407    8.7651 H   0  0  0  0  0  0  0  0  0  0  0  0
   45.2084    1.7951   10.2449 H   0  0  0  0  0  0  0  0  0  0  0  0
   44.1707    1.7536    8.8090 H   0  0  0  0  0  0  0  0  0  0  0  0
  3  2  1  0
  4  2  2  0
  5  2  1  0
  6  5  1  0
  7  5  1  0
  8  7  1  0
  9  6  1  0
 10  9  1  0
 11  8  1  0
 13 12  2  0
 14 12  1  0
 15 12  1  0
 16 14  1  0
 17 14  1  0
 18 16  1  0
 19 17  1  0
 20 19  1  0
 21 18  1  0
  5 22  1  0
  6 23  1  0
  6 24  1  0
  7 25  1  0
  7 26  1  0
  8 27  1  0
  8 28  1  0
  9 29  1  0
  9 30  1  0
 10 31  1  0
 10 32  1  0
 10 33  1  0
 11 34  1  0
 11 35  1  0
 11 36  1  0
 14 37  1  0
 15 38  1  0
 16 39  1  0
 16 40  1  0
 17 41  1  0
 17 42  1  0
 18 43  1  0
 18 44  1  0
 19 45  1  0
 19 46  1  0
 20 47  1  0
 20 48  1  0
 20 49  1  0
 21 50  1  0
 21 51  1  0
 21 52  1  0
M  CHG  2   1   1   3  -1
M  END
> <Uni-Dock RESULT> 
ENERGY=   -6.772  LOWER_BOUND=    0.000  UPPER_BOUND=    0.000
INTER + INTRA:          -6.772
INTER:                  -6.772
INTRA:                   0.000
UNBOUND:                 0.000

$$$$

     RDKit          3D

 52 49  0  0  0  0  0  0  0  0999 V2000
   44.9649    5.6829   11.2555 Na  0  0  0  0  0 15  0  0  0  0  0  0
   43.5093    6.1587   11.5628 C   0  0  0  0  0  0  0  0  0  0  0  0
   42.8226    6.7505   10.6804 O   0  0  0  0  0  0  0  0  0  0  0  0
   43.1628    5.7528   12.7073 O   0  0  0  0  0  0  0  0  0  0  0  0
   44.9757    5.8986   11.1621 C   0  0  0  0  0  0  0  0  0  0  0  0
   45.9648    6.3513   12.2509 C   0  0  0  0  0  0  0  0  0  0  0  0
   45.1207    4.3830   10.9166 C   0  0  0  0  0  0  0  0  0  0  0  0
   44.3146    3.8872    9.7109 C   0  0  0  0  0  0  0  0  0  0  0  0
   46.2285    7.8619   12.2863 C   0  0  0  0  0  0  0  0  0  0  0  0
   45.0617    8.6992   12.7818 C   0  0  0  0  0  0  0  0  0  0  0  0
   44.5625    2.4094    9.4485 C   0  0  0  0  0  0  0  0  0  0  0  0
   43.5823    5.5563   12.1665 C   0  0  0  0  0  0  0  0  0  0  0  0
   42.6083    6.0920   11.6644 O   0  0  0  0  0  0  0  0  0  0  0  0
   44.9802    5.4918   11.5902 C   0  0  0  0  0  0  0  0  0  0  0  0
   43.4844    4.9360   13.3578 O   0  0  0  0  0  0  0  0  0  0  0  0
   45.5352    6.9161   11.4161 C   0  0  0  0  0  0  0  0  0  0  0  0
   44.9510    4.7523   10.2414 C   0  0  0  0  0  0  0  0  0  0  0  0
   45.7730    7.6224   12.7546 C   0  0  0  0  0  0  0  0  0  0  0  0
   44.5975    3.2692   10.3912 C   0  0  0  0  0  0  0  0  0  0  0  0
   44.6299    2.5529    9.0499 C   0  0  0  0  0  0  0  0  0  0  0  0
   46.3724    9.0056   12.5530 C   0  0  0  0  0  0  0  0  0  0  0  0
   45.2048    6.4304   10.2296 H   0  0  0  0  0  0  0  0  0  0  0  0
   45.6436    6.0139   13.2438 H   0  0  0  0  0  0  0  0  0  0  0  0
   46.9337    5.8690   12.0660 H   0  0  0  0  0  0  0  0  0  0  0  0
   44.8230    3.8196   11.8103 H   0  0  0  0  0  0  0  0  0  0  0  0
   46.1790    4.1511   10.7399 H   0  0  0  0  0  0  0  0  0  0  0  0
   43.2427    4.0375    9.8785 H   0  0  0  0  0  0  0  0  0  0  0  0
   44.5897    4.4608    8.8183 H   0  0  0  0  0  0  0  0  0  0  0  0
   46.5353    8.2121   11.2938 H   0  0  0  0  0  0  0  0  0  0  0  0
   47.0797    8.0392   12.9556 H   0  0  0  0  0  0  0  0  0  0  0  0
   44.2461    8.7226   12.0551 H   0  0  0  0  0  0  0  0  0  0  0  0
   45.3848    9.7337   12.9383 H   0  0  0  0  0  0  0  0  0  0  0  0
   44.6763    8.3193   13.7330 H   0  0  0  0  0  0  0  0  0  0  0  0
   45.6195    2.2201    9.2355 H   0  0  0  0  0  0  0  0  0  0  0  0
   43.9775    2.0744    8.5862 H   0  0  0  0  0  0  0  0  0  0  0  0
   44.2717    1.8036   10.3127 H   0  0  0  0  0  0  0  0  0  0  0  0
   45.6305    4.9407   12.2816 H   0  0  0  0  0  0  0  0  0  0  0  0
   42.5442    5.0536   13.6089 H   0  0  0  0  0  0  0  0  0  0  0  0
   46.4867    6.8679   10.8714 H   0  0  0  0  0  0  0  0  0  0  0  0
   44.8494    7.5169   10.8051 H   0  0  0  0  0  0  0  0  0  0  0  0
   44.2320    5.2304    9.5638 H   0  0  0  0  0  0  0  0  0  0  0  0
   45.9367    4.8313    9.7656 H   0  0  0  0  0  0  0  0  0  0  0  0
   46.4509    7.0247   13.3749 H   0  0  0  0  0  0  0  0  0  0  0  0
   44.8312    7.7225   13.3054 H   0  0  0  0  0  0  0  0  0  0  0  0
   43.5985    3.1575   10.8271 H   0  0  0  0  0  0  0  0  0  0  0  0
   45.3061    2.7853   11.0734 H   0  0  0  0  0  0  0  0  0  0  0  0
   43.9103    2.9938    8.3526 H   0  0  0  0  0  0  0  0  0  0  0  0
   44.3752    1.4963    9.1784 H   0  0  0  0  0  0  0  0  0  0  0  0
   45.6256    2.6096    8.5985 H   0  0  0  0  0  0  0  0  0  0  0  0
   47.3364    8.9446   12.0379 H   0  0  0  0  0  0  0  0  0  0  0  0
   45.7050    9.6395   11.9607 H   0  0  0  0  0  0  0  0  0  0  0  0
   46.5346    9.4928   13.5197 H   0  0  0  0  0  0  0  0  0  0  0  0
  3  2  1  0
  4  2  2  0
  5  2  1  0
  6  5  1  0
  7  5  1  0
  8  7  1  0
  9  6  1  0
 10  9  1  0
 11  8  1  0
 13 12  2  0
 14 12  1  0
 15 12  1  0
 16 14  1  0
 17 14  1  0
 18 16  1  0
 19 17  1  0
 20 19  1  0
 21 18  1  0
  5 22  1  0
  6 23  1  0
  6 24  1  0
  7 25  1  0
  7 26  1  0
  8 27  1  0
  8 28  1  0
  9 29  1  0
  9 30  1  0
 10 31  1  0
 10 32  1  0
 10 33  1  0
 11 34  1  0
 11 35  1  0
 11 36  1  0
 14 37  1  0
 15 38  1  0
 16 39  1  0
 16 40  1  0
 17 41  1  0
 17 42  1  0
 18 43  1  0
 18 44  1  0
 19 45  1  0
 19 46  1  0
 20 47  1  0
 20 48  1  0
 20 49  1  0
 21 50  1  0
 21 51  1  0
 21 52  1  0
M  CHG  2   1   1   3  -1
M  END
> <Uni-Dock RESULT> 
ENERGY=   -6.265  LOWER_BOUND=    0.652  UPPER_BOUND=    4.253
INTER + INTRA:          -6.265
INTER:                  -6.265
INTRA:                   0.000
UNBOUND:                 0.000

$$$$

     RDKit          3D

 52 49  0  0  0  0  0  0  0  0999 V2000
   47.5195   11.8022   19.3685 Na  0  0  0  0  0 15  0  0  0  0  0  0
   48.2321   12.5833   20.5182 C   0  0  0  0  0  0  0  0  0  0  0  0
   49.4946   12.6288   20.5833 O   0  0  0  0  0  0  0  0  0  0  0  0
   47.3725   13.1971   21.2105 O   0  0  0  0  0  0  0  0  0  0  0  0
   47.6828   11.6429   19.4262 C   0  0  0  0  0  0  0  0  0  0  0  0
   46.6025   10.6905   19.9689 C   0  0  0  0  0  0  0  0  0  0  0  0
   47.0905   12.5311   18.3134 C   0  0  0  0  0  0  0  0  0  0  0  0
   48.1466   13.3682   17.5832 C   0  0  0  0  0  0  0  0  0  0  0  0
   47.1454    9.4875   20.7504 C   0  0  0  0  0  0  0  0  0  0  0  0
   47.7441    9.8274   22.1047 C   0  0  0  0  0  0  0  0  0  0  0  0
   47.5334   14.1539   16.4338 C   0  0  0  0  0  0  0  0  0  0  0  0
   47.4728   12.9777   20.5405 C   0  0  0  0  0  0  0  0  0  0  0  0
   48.5711   13.3017   20.9602 O   0  0  0  0  0  0  0  0  0  0  0  0
   47.1771   11.9439   19.4755 C   0  0  0  0  0  0  0  0  0  0  0  0
   46.3568   13.5547   21.0257 O   0  0  0  0  0  0  0  0  0  0  0  0
   47.6905   10.5675   19.9325 C   0  0  0  0  0  0  0  0  0  0  0  0
   47.8423   12.3588   18.1517 C   0  0  0  0  0  0  0  0  0  0  0  0
   46.9146   10.0198   21.1346 C   0  0  0  0  0  0  0  0  0  0  0  0
   47.2200   13.6237   17.5518 C   0  0  0  0  0  0  0  0  0  0  0  0
   47.8601   13.9781   16.2184 C   0  0  0  0  0  0  0  0  0  0  0  0
   47.4073    8.6360   21.5290 C   0  0  0  0  0  0  0  0  0  0  0  0
   48.5024   11.0476   19.0034 H   0  0  0  0  0  0  0  0  0  0  0  0
   45.8738   11.2284   20.5874 H   0  0  0  0  0  0  0  0  0  0  0  0
   46.0371   10.2828   19.1205 H   0  0  0  0  0  0  0  0  0  0  0  0
   46.3186   13.1954   18.7230 H   0  0  0  0  0  0  0  0  0  0  0  0
   46.5908   11.8904   17.5752 H   0  0  0  0  0  0  0  0  0  0  0  0
   48.6219   14.0729   18.2740 H   0  0  0  0  0  0  0  0  0  0  0  0
   48.9335   12.7140   17.1906 H   0  0  0  0  0  0  0  0  0  0  0  0
   47.8868    8.9517   20.1461 H   0  0  0  0  0  0  0  0  0  0  0  0
   46.3145    8.7898   20.9140 H   0  0  0  0  0  0  0  0  0  0  0  0
   48.6926   10.3602   22.0029 H   0  0  0  0  0  0  0  0  0  0  0  0
   47.9482    8.9081   22.6636 H   0  0  0  0  0  0  0  0  0  0  0  0
   47.0581   10.4380   22.6999 H   0  0  0  0  0  0  0  0  0  0  0  0
   47.0808   13.4830   15.6966 H   0  0  0  0  0  0  0  0  0  0  0  0
   48.3020   14.7458   15.9269 H   0  0  0  0  0  0  0  0  0  0  0  0
   46.7604   14.8392   16.7959 H   0  0  0  0  0  0  0  0  0  0  0  0
   46.0920   11.8837   19.3223 H   0  0  0  0  0  0  0  0  0  0  0  0
   46.6905   14.1901   21.6934 H   0  0  0  0  0  0  0  0  0  0  0  0
   47.5996    9.8552   19.1026 H   0  0  0  0  0  0  0  0  0  0  0  0
   48.7571   10.6267   20.1850 H   0  0  0  0  0  0  0  0  0  0  0  0
   48.9174   12.5197   18.3032 H   0  0  0  0  0  0  0  0  0  0  0  0
   47.7426   11.5413   17.4264 H   0  0  0  0  0  0  0  0  0  0  0  0
   45.8466    9.9650   20.8939 H   0  0  0  0  0  0  0  0  0  0  0  0
   47.0203   10.6906   21.9944 H   0  0  0  0  0  0  0  0  0  0  0  0
   47.3406   14.4699   18.2373 H   0  0  0  0  0  0  0  0  0  0  0  0
   46.1440   13.4748   17.4048 H   0  0  0  0  0  0  0  0  0  0  0  0
   48.9328   14.1628   16.3352 H   0  0  0  0  0  0  0  0  0  0  0  0
   47.4021   14.8830   15.8069 H   0  0  0  0  0  0  0  0  0  0  0  0
   47.7271   13.1700   15.4920 H   0  0  0  0  0  0  0  0  0  0  0  0
   47.2826    7.9253   20.7058 H   0  0  0  0  0  0  0  0  0  0  0  0
   48.4663    8.6609   21.8049 H   0  0  0  0  0  0  0  0  0  0  0  0
   46.8410    8.2628   22.3882 H   0  0  0  0  0  0  0  0  0  0  0  0
  3  2  1  0
  4  2  2  0
  5  2  1  0
  6  5  1  0
  7  5  1  0
  8  7  1  0
  9  6  1  0
 10  9  1  0
 11  8  1  0
 13 12  2  0
 14 12  1  0
 15 12  1  0
 16 14  1  0
 17 14  1  0
 18 16  1  0
 19 17  1  0
 20 19  1  0
 21 18  1  0
  5 22  1  0
  6 23  1  0
  6 24  1  0
  7 25  1  0
  7 26  1  0
  8 27  1  0
  8 28  1  0
  9 29  1  0
  9 30  1  0
 10 31  1  0
 10 32  1  0
 10 33  1  0
 11 34  1  0
 11 35  1  0
 11 36  1  0
 14 37  1  0
 15 38  1  0
 16 39  1  0
 16 40  1  0
 17 41  1  0
 17 42  1  0
 18 43  1  0
 18 44  1  0
 19 45  1  0
 19 46  1  0
 20 47  1  0
 20 48  1  0
 20 49  1  0
 21 50  1  0
 21 51  1  0
 21 52  1  0
M  CHG  2   1   1   3  -1
M  END
> <Uni-Dock RESULT> 
ENERGY=   -5.071  LOWER_BOUND=   10.700  UPPER_BOUND=   11.189
INTER + INTRA:          -5.071
INTER:                  -5.071
INTRA:                   0.000
UNBOUND:                 0.000

$$$$

     RDKit          3D

 52 49  0  0  0  0  0  0  0  0999 V2000
   48.4381    4.6206   19.7433 Na  0  0  0  0  0 15  0  0  0  0  0  0
   47.5172    5.6152   18.9672 C   0  0  0  0  0  0  0  0  0  0  0  0
   46.2616    5.4606   18.9576 O   0  0  0  0  0  0  0  0  0  0  0  0
   48.2093    6.5700   18.5154 O   0  0  0  0  0  0  0  0  0  0  0  0
   48.2966    4.4654   19.6372 C   0  0  0  0  0  0  0  0  0  0  0  0
   49.4580    3.9628   18.7612 C   0  0  0  0  0  0  0  0  0  0  0  0
   48.8414    5.0017   20.9765 C   0  0  0  0  0  0  0  0  0  0  0  0
   47.7378    5.3373   21.9858 C   0  0  0  0  0  0  0  0  0  0  0  0
   49.0388    3.0301   17.6179 C   0  0  0  0  0  0  0  0  0  0  0  0
   48.2793    3.7086   16.4906 C   0  0  0  0  0  0  0  0  0  0  0  0
   48.3220    5.7700   23.3222 C   0  0  0  0  0  0  0  0  0  0  0  0
   48.2026    6.1183   19.0659 C   0  0  0  0  0  0  0  0  0  0  0  0
   47.0352    6.3718   18.8196 O   0  0  0  0  0  0  0  0  0  0  0  0
   48.7443    4.8477   19.6843 C   0  0  0  0  0  0  0  0  0  0  0  0
   49.1708    7.0120   18.7872 O   0  0  0  0  0  0  0  0  0  0  0  0
   48.4088    3.6480   18.7815 C   0  0  0  0  0  0  0  0  0  0  0  0
   48.1417    4.6564   21.0870 C   0  0  0  0  0  0  0  0  0  0  0  0
   49.1513    3.6940   17.4423 C   0  0  0  0  0  0  0  0  0  0  0  0
   48.6138    5.7228   22.0805 C   0  0  0  0  0  0  0  0  0  0  0  0
   48.0461    5.4766   23.4698 C   0  0  0  0  0  0  0  0  0  0  0  0
   48.8428    2.4693   16.5947 C   0  0  0  0  0  0  0  0  0  0  0  0
   47.6175    3.6279   19.8428 H   0  0  0  0  0  0  0  0  0  0  0  0
   50.0393    4.7994   18.3549 H   0  0  0  0  0  0  0  0  0  0  0  0
   50.1509    3.3912   19.3928 H   0  0  0  0  0  0  0  0  0  0  0  0
   49.4642    5.8899   20.8091 H   0  0  0  0  0  0  0  0  0  0  0  0
   49.4955    4.2421   21.4240 H   0  0  0  0  0  0  0  0  0  0  0  0
   47.1021    6.1437   21.6046 H   0  0  0  0  0  0  0  0  0  0  0  0
   47.0972    4.4616   22.1414 H   0  0  0  0  0  0  0  0  0  0  0  0
   48.4434    2.1983   18.0121 H   0  0  0  0  0  0  0  0  0  0  0  0
   49.9489    2.5877   17.1938 H   0  0  0  0  0  0  0  0  0  0  0  0
   47.2733    3.9999   16.8016 H   0  0  0  0  0  0  0  0  0  0  0  0
   48.1698    3.0192   15.6468 H   0  0  0  0  0  0  0  0  0  0  0  0
   48.8095    4.5967   16.1331 H   0  0  0  0  0  0  0  0  0  0  0  0
   48.9342    4.9747   23.7593 H   0  0  0  0  0  0  0  0  0  0  0  0
   47.5194    6.0067   24.0276 H   0  0  0  0  0  0  0  0  0  0  0  0
   48.9469    6.6613   23.2066 H   0  0  0  0  0  0  0  0  0  0  0  0
   49.8351    4.9275   19.7760 H   0  0  0  0  0  0  0  0  0  0  0  0
   48.6871    7.7711   18.3990 H   0  0  0  0  0  0  0  0  0  0  0  0
   48.6794    2.7197   19.3006 H   0  0  0  0  0  0  0  0  0  0  0  0
   47.3278    3.6049   18.5963 H   0  0  0  0  0  0  0  0  0  0  0  0
   47.0455    4.6706   21.0325 H   0  0  0  0  0  0  0  0  0  0  0  0
   48.4279    3.6688   21.4706 H   0  0  0  0  0  0  0  0  0  0  0  0
   50.2320    3.7455   17.6180 H   0  0  0  0  0  0  0  0  0  0  0  0
   48.8698    4.5918   16.8809 H   0  0  0  0  0  0  0  0  0  0  0  0
   48.3062    6.7193   21.7448 H   0  0  0  0  0  0  0  0  0  0  0  0
   49.7086    5.7213   22.1350 H   0  0  0  0  0  0  0  0  0  0  0  0
   46.9517    5.5012   23.4562 H   0  0  0  0  0  0  0  0  0  0  0  0
   48.3948    6.2478   24.1637 H   0  0  0  0  0  0  0  0  0  0  0  0
   48.3636    4.5031   23.8569 H   0  0  0  0  0  0  0  0  0  0  0  0
   49.1459    1.5506   17.1071 H   0  0  0  0  0  0  0  0  0  0  0  0
   47.7724    2.4040   16.3753 H   0  0  0  0  0  0  0  0  0  0  0  0
   49.3822    2.5211   15.6437 H   0  0  0  0  0  0  0  0  0  0  0  0
  3  2  1  0
  4  2  2  0
  5  2  1  0
  6  5  1  0
  7  5  1  0
  8  7  1  0
  9  6  1  0
 10  9  1  0
 11  8  1  0
 13 12  2  0
 14 12  1  0
 15 12  1  0
 16 14  1  0
 17 14  1  0
 18 16  1  0
 19 17  1  0
 20 19  1  0
 21 18  1  0
  5 22  1  0
  6 23  1  0
  6 24  1  0
  7 25  1  0
  7 26  1  0
  8 27  1  0
  8 28  1  0
  9 29  1  0
  9 30  1  0
 10 31  1  0
 10 32  1  0
 10 33  1  0
 11 34  1  0
 11 35  1  0
 11 36  1  0
 14 37  1  0
 15 38  1  0
 16 39  1  0
 16 40  1  0
 17 41  1  0
 17 42  1  0
 18 43  1  0
 18 44  1  0
 19 45  1  0
 19 46  1  0
 20 47  1  0
 20 48  1  0
 20 49  1  0
 21 50  1  0
 21 51  1  0
 21 52  1  0
M  CHG  2   1   1   3  -1
M  END
> <Uni-Dock RESULT> 
ENERGY=   -5.050  LOWER_BOUND=    8.347  UPPER_BOUND=    9.311
INTER + INTRA:          -5.050
INTER:                  -5.050
INTRA:                   0.000
UNBOUND:                 0.000

$$$$

     RDKit          3D

 52 49  0  0  0  0  0  0  0  0999 V2000
   47.9276    5.8106   19.1005 Na  0  0  0  0  0 15  0  0  0  0  0  0
   49.2913    5.1649   19.5042 C   0  0  0  0  0  0  0  0  0  0  0  0
   50.3833    5.6401   19.0775 O   0  0  0  0  0  0  0  0  0  0  0  0
   49.0937    4.2533   20.3555 O   0  0  0  0  0  0  0  0  0  0  0  0
   48.0317    5.8084   18.8895 C   0  0  0  0  0  0  0  0  0  0  0  0
   47.0328    4.7560   18.3763 C   0  0  0  0  0  0  0  0  0  0  0  0
   47.3737    6.6665   19.9890 C   0  0  0  0  0  0  0  0  0  0  0  0
   48.2308    7.8641   20.4137 C   0  0  0  0  0  0  0  0  0  0  0  0
   47.3956    4.1389   17.0197 C   0  0  0  0  0  0  0  0  0  0  0  0
   48.5972    3.2096   17.0455 C   0  0  0  0  0  0  0  0  0  0  0  0
   47.5034    8.7343   21.4276 C   0  0  0  0  0  0  0  0  0  0  0  0
   48.8102    4.8730   20.1491 C   0  0  0  0  0  0  0  0  0  0  0  0
   50.0174    4.9927   20.0235 O   0  0  0  0  0  0  0  0  0  0  0  0
   47.7397    5.5875   19.3529 C   0  0  0  0  0  0  0  0  0  0  0  0
   48.2974    4.0362   21.0714 O   0  0  0  0  0  0  0  0  0  0  0  0
   47.8767    5.2300   17.8628 C   0  0  0  0  0  0  0  0  0  0  0  0
   47.8669    7.1067   19.5602 C   0  0  0  0  0  0  0  0  0  0  0  0
   47.5580    3.7585   17.5793 C   0  0  0  0  0  0  0  0  0  0  0  0
   47.5386    7.5343   20.9942 C   0  0  0  0  0  0  0  0  0  0  0  0
   47.6194    9.0445   21.1550 C   0  0  0  0  0  0  0  0  0  0  0  0
   47.6482    3.4478   16.0932 C   0  0  0  0  0  0  0  0  0  0  0  0
   48.3190    6.4627   18.0563 H   0  0  0  0  0  0  0  0  0  0  0  0
   46.8852    3.9568   19.1127 H   0  0  0  0  0  0  0  0  0  0  0  0
   46.0533    5.2357   18.2496 H   0  0  0  0  0  0  0  0  0  0  0  0
   47.1447    6.0521   20.8693 H   0  0  0  0  0  0  0  0  0  0  0  0
   46.4139    7.0471   19.6163 H   0  0  0  0  0  0  0  0  0  0  0  0
   49.1725    7.5233   20.8573 H   0  0  0  0  0  0  0  0  0  0  0  0
   48.4832    8.4706   19.5364 H   0  0  0  0  0  0  0  0  0  0  0  0
   47.5607    4.9309   16.2799 H   0  0  0  0  0  0  0  0  0  0  0  0
   46.5301    3.5622   16.6702 H   0  0  0  0  0  0  0  0  0  0  0  0
   49.5287    3.7607   17.1954 H   0  0  0  0  0  0  0  0  0  0  0  0
   48.6830    2.6843   16.0885 H   0  0  0  0  0  0  0  0  0  0  0  0
   48.5007    2.4578   17.8348 H   0  0  0  0  0  0  0  0  0  0  0  0
   46.5725    9.1303   21.0094 H   0  0  0  0  0  0  0  0  0  0  0  0
   48.1316    9.5818   21.7194 H   0  0  0  0  0  0  0  0  0  0  0  0
   47.2603    8.1647   22.3303 H   0  0  0  0  0  0  0  0  0  0  0  0
   46.7517    5.2642   19.7049 H   0  0  0  0  0  0  0  0  0  0  0  0
   49.0871    3.6489   21.5040 H   0  0  0  0  0  0  0  0  0  0  0  0
   47.1912    5.8560   17.2775 H   0  0  0  0  0  0  0  0  0  0  0  0
   48.8917    5.4560   17.5116 H   0  0  0  0  0  0  0  0  0  0  0  0
   48.8815    7.4391   19.3053 H   0  0  0  0  0  0  0  0  0  0  0  0
   47.1822    7.6226   18.8751 H   0  0  0  0  0  0  0  0  0  0  0  0
   46.5484    3.5218   17.9346 H   0  0  0  0  0  0  0  0  0  0  0  0
   48.2540    3.1069   18.1192 H   0  0  0  0  0  0  0  0  0  0  0  0
   48.2336    7.0663   21.7001 H   0  0  0  0  0  0  0  0  0  0  0  0
   46.5295    7.1988   21.2602 H   0  0  0  0  0  0  0  0  0  0  0  0
   48.6253    9.4100   20.9249 H   0  0  0  0  0  0  0  0  0  0  0  0
   47.3815    9.3291   22.1847 H   0  0  0  0  0  0  0  0  0  0  0  0
   46.9099    9.5486   20.4910 H   0  0  0  0  0  0  0  0  0  0  0  0
   46.9381    4.0539   15.5215 H   0  0  0  0  0  0  0  0  0  0  0  0
   48.6549    3.6457   15.7117 H   0  0  0  0  0  0  0  0  0  0  0  0
   47.4172    2.3934   15.9119 H   0  0  0  0  0  0  0  0  0  0  0  0
  3  2  1  0
  4  2  2  0
  5  2  1  0
  6  5  1  0
  7  5  1  0
  8  7  1  0
  9  6  1  0
 10  9  1  0
 11  8  1  0
 13 12  2  0
 14 12  1  0
 15 12  1  0
 16 14  1  0
 17 14  1  0
 18 16  1  0
 19 17  1  0
 20 19  1  0
 21 18  1  0
  5 22  1  0
  6 23  1  0
  6 24  1  0
  7 25  1  0
  7 26  1  0
  8 27  1  0
  8 28  1  0
  9 29  1  0
  9 30  1  0
 10 31  1  0
 10 32  1  0
 10 33  1  0
 11 34  1  0
 11 35  1  0
 11 36  1  0
 14 37  1  0
 15 38  1  0
 16 39  1  0
 16 40  1  0
 17 41  1  0
 17 42  1  0
 18 43  1  0
 18 44  1  0
 19 45  1  0
 19 46  1  0
 20 47  1  0
 20 48  1  0
 20 49  1  0
 21 50  1  0
 21 51  1  0
 21 52  1  0
M  CHG  2   1   1   3  -1
M  END
> <Uni-Dock RESULT> 
ENERGY=   -4.832  LOWER_BOUND=    7.730  UPPER_BOUND=    8.845
INTER + INTRA:          -4.832
INTER:                  -4.832
INTRA:                   0.000
UNBOUND:                 0.000

$$$$

     RDKit          3D

 52 49  0  0  0  0  0  0  0  0999 V2000
   48.6557    4.5919   19.6192 Na  0  0  0  0  0 15  0  0  0  0  0  0
   48.3895    5.9882   18.9717 C   0  0  0  0  0  0  0  0  0  0  0  0
   49.3506    6.7280   18.6119 O   0  0  0  0  0  0  0  0  0  0  0  0
   47.1496    6.1410   18.7871 O   0  0  0  0  0  0  0  0  0  0  0  0
   48.8134    4.7192   19.7387 C   0  0  0  0  0  0  0  0  0  0  0  0
   48.0161    4.5344   21.0422 C   0  0  0  0  0  0  0  0  0  0  0  0
   48.5758    3.5177   18.8016 C   0  0  0  0  0  0  0  0  0  0  0  0
   49.4858    3.5253   17.5683 C   0  0  0  0  0  0  0  0  0  0  0  0
   48.4862    5.4125   22.2086 C   0  0  0  0  0  0  0  0  0  0  0  0
   48.1826    6.8928   22.0521 C   0  0  0  0  0  0  0  0  0  0  0  0
   49.2852    2.2758   16.7240 C   0  0  0  0  0  0  0  0  0  0  0  0
   47.6344    5.6199   18.8080 C   0  0  0  0  0  0  0  0  0  0  0  0
   48.1934    6.5850   18.3145 O   0  0  0  0  0  0  0  0  0  0  0  0
   48.2803    4.5050   19.6020 C   0  0  0  0  0  0  0  0  0  0  0  0
   46.3039    5.4582   18.6767 O   0  0  0  0  0  0  0  0  0  0  0  0
   48.9462    5.0846   20.8620 C   0  0  0  0  0  0  0  0  0  0  0  0
   49.3158    3.7781   18.7266 C   0  0  0  0  0  0  0  0  0  0  0  0
   47.9281    5.6416   21.8620 C   0  0  0  0  0  0  0  0  0  0  0  0
   48.6717    3.0133   17.5659 C   0  0  0  0  0  0  0  0  0  0  0  0
   49.7130    2.2611   16.7516 C   0  0  0  0  0  0  0  0  0  0  0  0
   48.6107    6.1571   23.1196 C   0  0  0  0  0  0  0  0  0  0  0  0
   49.8829    4.7721   19.9801 H   0  0  0  0  0  0  0  0  0  0  0  0
   46.9434    4.6915   20.8767 H   0  0  0  0  0  0  0  0  0  0  0  0
   48.1221    3.4926   21.3726 H   0  0  0  0  0  0  0  0  0  0  0  0
   47.5269    3.4836   18.4801 H   0  0  0  0  0  0  0  0  0  0  0  0
   48.7615    2.5902   19.3586 H   0  0  0  0  0  0  0  0  0  0  0  0
   49.2815    4.4037   16.9467 H   0  0  0  0  0  0  0  0  0  0  0  0
   50.5349    3.5824   17.8804 H   0  0  0  0  0  0  0  0  0  0  0  0
   49.5614    5.2743   22.3721 H   0  0  0  0  0  0  0  0  0  0  0  0
   47.9853    5.0593   23.1187 H   0  0  0  0  0  0  0  0  0  0  0  0
   48.8047    7.3515   21.2799 H   0  0  0  0  0  0  0  0  0  0  0  0
   48.3922    7.4178   22.9900 H   0  0  0  0  0  0  0  0  0  0  0  0
   47.1300    7.0577   21.8019 H   0  0  0  0  0  0  0  0  0  0  0  0
   49.5186    1.3727   17.2971 H   0  0  0  0  0  0  0  0  0  0  0  0
   49.9415    2.3008   15.8484 H   0  0  0  0  0  0  0  0  0  0  0  0
   48.2513    2.2024   16.3719 H   0  0  0  0  0  0  0  0  0  0  0  0
   47.5093    3.7864   19.9081 H   0  0  0  0  0  0  0  0  0  0  0  0
   46.0219    6.2365   18.1518 H   0  0  0  0  0  0  0  0  0  0  0  0
   49.5284    4.2968   21.3567 H   0  0  0  0  0  0  0  0  0  0  0  0
   49.6541    5.8765   20.5851 H   0  0  0  0  0  0  0  0  0  0  0  0
   50.0446    4.4960   18.3286 H   0  0  0  0  0  0  0  0  0  0  0  0
   49.8764    3.0671   19.3467 H   0  0  0  0  0  0  0  0  0  0  0  0
   47.2117    4.8591   22.1379 H   0  0  0  0  0  0  0  0  0  0  0  0
   47.3575    6.4601   21.4093 H   0  0  0  0  0  0  0  0  0  0  0  0
   48.1373    3.7039   16.9042 H   0  0  0  0  0  0  0  0  0  0  0  0
   47.9359    2.2995   17.9541 H   0  0  0  0  0  0  0  0  0  0  0  0
   50.4485    2.9499   16.3237 H   0  0  0  0  0  0  0  0  0  0  0  0
   49.2334    1.7219   15.9288 H   0  0  0  0  0  0  0  0  0  0  0  0
   50.2444    1.5317   17.3714 H   0  0  0  0  0  0  0  0  0  0  0  0
   49.1621    5.3566   23.6234 H   0  0  0  0  0  0  0  0  0  0  0  0
   49.3131    6.9624   22.8824 H   0  0  0  0  0  0  0  0  0  0  0  0
   47.8673    6.5499   23.8204 H   0  0  0  0  0  0  0  0  0  0  0  0
  3  2  1  0
  4  2  2  0
  5  2  1  0
  6  5  1  0
  7  5  1  0
  8  7  1  0
  9  6  1  0
 10  9  1  0
 11  8  1  0
 13 12  2  0
 14 12  1  0
 15 12  1  0
 16 14  1  0
 17 14  1  0
 18 16  1  0
 19 17  1  0
 20 19  1  0
 21 18  1  0
  5 22  1  0
  6 23  1  0
  6 24  1  0
  7 25  1  0
  7 26  1  0
  8 27  1  0
  8 28  1  0
  9 29  1  0
  9 30  1  0
 10 31  1  0
 10 32  1  0
 10 33  1  0
 11 34  1  0
 11 35  1  0
 11 36  1  0
 14 37  1  0
 15 38  1  0
 16 39  1  0
 16 40  1  0
 17 41  1  0
 17 42  1  0
 18 43  1  0
 18 44  1  0
 19 45  1  0
 19 46  1  0
 20 47  1  0
 20 48  1  0
 20 49  1  0
 21 50  1  0
 21 51  1  0
 21 52  1  0
M  CHG  2   1   1   3  -1
M  END
> <Uni-Dock RESULT> 
ENERGY=   -4.793  LOWER_BOUND=    8.310  UPPER_BOUND=    9.887
INTER + INTRA:          -4.793
INTER:                  -4.793
INTRA:                   0.000
UNBOUND:                 0.000

$$$$

     RDKit          3D

 52 49  0  0  0  0  0  0  0  0999 V2000
   47.3561    7.4149   12.3652 Na  0  0  0  0  0 15  0  0  0  0  0  0
   47.0876    8.9212   12.6793 C   0  0  0  0  0  0  0  0  0  0  0  0
   46.6410    9.6983   11.7865 O   0  0  0  0  0  0  0  0  0  0  0  0
   47.2675    9.1366   13.9106 O   0  0  0  0  0  0  0  0  0  0  0  0
   47.4527    7.5108   12.1734 C   0  0  0  0  0  0  0  0  0  0  0  0
   48.8569    7.0755   12.6289 C   0  0  0  0  0  0  0  0  0  0  0  0
   46.3938    6.5372   12.7290 C   0  0  0  0  0  0  0  0  0  0  0  0
   44.9916    6.7821   12.1606 C   0  0  0  0  0  0  0  0  0  0  0  0
   50.0084    7.6799   11.8156 C   0  0  0  0  0  0  0  0  0  0  0  0
   50.2301    9.1666   12.0360 C   0  0  0  0  0  0  0  0  0  0  0  0
   44.0012    5.7414   12.6609 C   0  0  0  0  0  0  0  0  0  0  0  0
   47.0582    8.6120   13.4769 C   0  0  0  0  0  0  0  0  0  0  0  0
   46.6347    9.6463   12.9886 O   0  0  0  0  0  0  0  0  0  0  0  0
   47.4211    7.3418   12.7383 C   0  0  0  0  0  0  0  0  0  0  0  0
   47.2505    8.5108   14.8060 O   0  0  0  0  0  0  0  0  0  0  0  0
   48.5512    7.6305   11.7351 C   0  0  0  0  0  0  0  0  0  0  0  0
   46.1803    6.7911   12.0142 C   0  0  0  0  0  0  0  0  0  0  0  0
   49.8718    7.9887   12.4240 C   0  0  0  0  0  0  0  0  0  0  0  0
   45.1020    6.3001   12.9854 C   0  0  0  0  0  0  0  0  0  0  0  0
   43.9126    5.7118   12.2423 C   0  0  0  0  0  0  0  0  0  0  0  0
   50.9828    8.2148   11.4101 C   0  0  0  0  0  0  0  0  0  0  0  0
   47.4114    7.4885   11.0767 H   0  0  0  0  0  0  0  0  0  0  0  0
   49.0120    7.2874   13.6937 H   0  0  0  0  0  0  0  0  0  0  0  0
   48.9373    5.9856   12.5223 H   0  0  0  0  0  0  0  0  0  0  0  0
   46.3577    6.5943   13.8246 H   0  0  0  0  0  0  0  0  0  0  0  0
   46.6898    5.5099   12.4799 H   0  0  0  0  0  0  0  0  0  0  0  0
   44.6298    7.7753   12.4476 H   0  0  0  0  0  0  0  0  0  0  0  0
   45.0233    6.7495   11.0654 H   0  0  0  0  0  0  0  0  0  0  0  0
   49.8545    7.4868   10.7474 H   0  0  0  0  0  0  0  0  0  0  0  0
   50.9304    7.1556   12.0968 H   0  0  0  0  0  0  0  0  0  0  0  0
   49.4275    9.7626   11.5952 H   0  0  0  0  0  0  0  0  0  0  0  0
   51.1646    9.4792   11.5582 H   0  0  0  0  0  0  0  0  0  0  0  0
   50.3014    9.4034   13.1021 H   0  0  0  0  0  0  0  0  0  0  0  0
   44.3048    4.7335   12.3599 H   0  0  0  0  0  0  0  0  0  0  0  0
   43.0070    5.9342   12.2459 H   0  0  0  0  0  0  0  0  0  0  0  0
   43.9247    5.7660   13.7526 H   0  0  0  0  0  0  0  0  0  0  0  0
   47.7712    6.5924   13.4596 H   0  0  0  0  0  0  0  0  0  0  0  0
   46.9807    9.3877   15.1512 H   0  0  0  0  0  0  0  0  0  0  0  0
   48.7119    6.7440   11.1085 H   0  0  0  0  0  0  0  0  0  0  0  0
   48.2595    8.4468   11.0619 H   0  0  0  0  0  0  0  0  0  0  0  0
   45.7542    7.5599   11.3568 H   0  0  0  0  0  0  0  0  0  0  0  0
   46.4803    5.9540   11.3711 H   0  0  0  0  0  0  0  0  0  0  0  0
   50.1666    7.1819   13.1049 H   0  0  0  0  0  0  0  0  0  0  0  0
   49.7537    8.8961   13.0265 H   0  0  0  0  0  0  0  0  0  0  0  0
   44.7519    7.1253   13.6152 H   0  0  0  0  0  0  0  0  0  0  0  0
   45.5215    5.5374   13.6517 H   0  0  0  0  0  0  0  0  0  0  0  0
   43.4508    6.4582   11.5880 H   0  0  0  0  0  0  0  0  0  0  0  0
   43.1547    5.3671   12.9527 H   0  0  0  0  0  0  0  0  0  0  0  0
   44.2163    4.8574   11.6288 H   0  0  0  0  0  0  0  0  0  0  0  0
   51.1576    7.3148   10.8119 H   0  0  0  0  0  0  0  0  0  0  0  0
   50.7326    9.0361   10.7311 H   0  0  0  0  0  0  0  0  0  0  0  0
   51.9165    8.4689   11.9215 H   0  0  0  0  0  0  0  0  0  0  0  0
  3  2  1  0
  4  2  2  0
  5  2  1  0
  6  5  1  0
  7  5  1  0
  8  7  1  0
  9  6  1  0
 10  9  1  0
 11  8  1  0
 13 12  2  0
 14 12  1  0
 15 12  1  0
 16 14  1  0
 17 14  1  0
 18 16  1  0
 19 17  1  0
 20 19  1  0
 21 18  1  0
  5 22  1  0
  6 23  1  0
  6 24  1  0
  7 25  1  0
  7 26  1  0
  8 27  1  0
  8 28  1  0
  9 29  1  0
  9 30  1  0
 10 31  1  0
 10 32  1  0
 10 33  1  0
 11 34  1  0
 11 35  1  0
 11 36  1  0
 14 37  1  0
 15 38  1  0
 16 39  1  0
 16 40  1  0
 17 41  1  0
 17 42  1  0
 18 43  1  0
 18 44  1  0
 19 45  1  0
 19 46  1  0
 20 47  1  0
 20 48  1  0
 20 49  1  0
 21 50  1  0
 21 51  1  0
 21 52  1  0
M  CHG  2   1   1   3  -1
M  END
> <Uni-Dock RESULT> 
ENERGY=   -4.791  LOWER_BOUND=    3.515  UPPER_BOUND=    5.355
INTER + INTRA:          -4.791
INTER:                  -4.791
INTRA:                   0.000
UNBOUND:                 0.000

$$$$

     RDKit          3D

 52 49  0  0  0  0  0  0  0  0999 V2000
   48.1206    7.5631   12.8895 Na  0  0  0  0  0 15  0  0  0  0  0  0
   46.9656    8.5710   13.1887 C   0  0  0  0  0  0  0  0  0  0  0  0
   45.9841    8.6830   12.3984 O   0  0  0  0  0  0  0  0  0  0  0  0
   47.1409    9.0921   14.3256 O   0  0  0  0  0  0  0  0  0  0  0  0
   48.0973    7.6578   12.6753 C   0  0  0  0  0  0  0  0  0  0  0  0
   49.4795    8.3251   12.7894 C   0  0  0  0  0  0  0  0  0  0  0  0
   48.0639    6.3687   13.5211 C   0  0  0  0  0  0  0  0  0  0  0  0
   46.7932    5.5388   13.3062 C   0  0  0  0  0  0  0  0  0  0  0  0
   49.7879    9.3481   11.6889 C   0  0  0  0  0  0  0  0  0  0  0  0
   48.9880   10.6367   11.7772 C   0  0  0  0  0  0  0  0  0  0  0  0
   46.8461    4.2328   14.0845 C   0  0  0  0  0  0  0  0  0  0  0  0
   47.2733    8.4824   13.9824 C   0  0  0  0  0  0  0  0  0  0  0  0
   46.1985    8.8806   13.5658 O   0  0  0  0  0  0  0  0  0  0  0  0
   48.2739    7.6251   13.2379 C   0  0  0  0  0  0  0  0  0  0  0  0
   47.6844    8.7961   15.2260 O   0  0  0  0  0  0  0  0  0  0  0  0
   48.7489    8.3623   11.9739 C   0  0  0  0  0  0  0  0  0  0  0  0
   47.6292    6.2774   12.8700 C   0  0  0  0  0  0  0  0  0  0  0  0
   49.5751    9.6113   12.2969 C   0  0  0  0  0  0  0  0  0  0  0  0
   47.3225    5.4169   14.0998 C   0  0  0  0  0  0  0  0  0  0  0  0
   46.7373    4.0704   13.7027 C   0  0  0  0  0  0  0  0  0  0  0  0
   50.0763   10.2877   11.0302 C   0  0  0  0  0  0  0  0  0  0  0  0
   47.9142    7.3955   11.6253 H   0  0  0  0  0  0  0  0  0  0  0  0
   49.6136    8.7944   13.7716 H   0  0  0  0  0  0  0  0  0  0  0  0
   50.2509    7.5469   12.7179 H   0  0  0  0  0  0  0  0  0  0  0  0
   48.1673    6.6069   14.5875 H   0  0  0  0  0  0  0  0  0  0  0  0
   48.9284    5.7465   13.2553 H   0  0  0  0  0  0  0  0  0  0  0  0
   45.9095    6.1011   13.6265 H   0  0  0  0  0  0  0  0  0  0  0  0
   46.6704    5.3160   12.2400 H   0  0  0  0  0  0  0  0  0  0  0  0
   49.6415    8.8929   10.7024 H   0  0  0  0  0  0  0  0  0  0  0  0
   50.8522    9.6058   11.7578 H   0  0  0  0  0  0  0  0  0  0  0  0
   47.9380   10.4768   11.5210 H   0  0  0  0  0  0  0  0  0  0  0  0
   49.3852   11.3715   11.0689 H   0  0  0  0  0  0  0  0  0  0  0  0
   49.0447   11.0711   12.7801 H   0  0  0  0  0  0  0  0  0  0  0  0
   47.6951    3.6196   13.7657 H   0  0  0  0  0  0  0  0  0  0  0  0
   45.9305    3.6562   13.9197 H   0  0  0  0  0  0  0  0  0  0  0  0
   46.9412    4.4203   15.1588 H   0  0  0  0  0  0  0  0  0  0  0  0
   49.1405    7.4376   13.8848 H   0  0  0  0  0  0  0  0  0  0  0  0
   46.9544    9.3427   15.5853 H   0  0  0  0  0  0  0  0  0  0  0  0
   49.3630    7.6825   11.3696 H   0  0  0  0  0  0  0  0  0  0  0  0
   47.8874    8.6464   11.3559 H   0  0  0  0  0  0  0  0  0  0  0  0
   46.7043    6.4434   12.3029 H   0  0  0  0  0  0  0  0  0  0  0  0
   48.3090    5.7201   12.2130 H   0  0  0  0  0  0  0  0  0  0  0  0
   50.4336    9.3378   12.9212 H   0  0  0  0  0  0  0  0  0  0  0  0
   48.9743   10.3291   12.8664 H   0  0  0  0  0  0  0  0  0  0  0  0
   46.6121    5.9306   14.7570 H   0  0  0  0  0  0  0  0  0  0  0  0
   48.2399    5.2531   14.6770 H   0  0  0  0  0  0  0  0  0  0  0  0
   45.8018    4.1976   13.1485 H   0  0  0  0  0  0  0  0  0  0  0  0
   46.5257    3.4715   14.5940 H   0  0  0  0  0  0  0  0  0  0  0  0
   47.4359    3.5086   13.0743 H   0  0  0  0  0  0  0  0  0  0  0  0
   50.7141    9.6126   10.4506 H   0  0  0  0  0  0  0  0  0  0  0  0
   49.2409   10.6009   10.3962 H   0  0  0  0  0  0  0  0  0  0  0  0
   50.6637   11.1763   11.2822 H   0  0  0  0  0  0  0  0  0  0  0  0
  3  2  1  0
  4  2  2  0
  5  2  1  0
  6  5  1  0
  7  5  1  0
  8  7  1  0
  9  6  1  0
 10  9  1  0
 11  8  1  0
 13 12  2  0
 14 12  1  0
 15 12  1  0
 16 14  1  0
 17 14  1  0
 18 16  1  0
 19 17  1  0
 20 19  1  0
 21 18  1  0
  5 22  1  0
  6 23  1  0
  6 24  1  0
  7 25  1  0
  7 26  1  0
  8 27  1  0
  8 28  1  0
  9 29  1  0
  9 30  1  0
 10 31  1  0
 10 32  1  0
 10 33  1  0
 11 34  1  0
 11 35  1  0
 11 36  1  0
 14 37  1  0
 15 38  1  0
 16 39  1  0
 16 40  1  0
 17 41  1  0
 17 42  1  0
 18 43  1  0
 18 44  1  0
 19 45  1  0
 19 46  1  0
 20 47  1  0
 20 48  1  0
 20 49  1  0
 21 50  1  0
 21 51  1  0
 21 52  1  0
M  CHG  2   1   1   3  -1
M  END
> <Uni-Dock RESULT> 
ENERGY=   -4.730  LOWER_BOUND=    3.751  UPPER_BOUND=    5.953
INTER + INTRA:          -4.730
INTER:                  -4.730
INTRA:                   0.000
UNBOUND:                 0.000

$$$$

     RDKit          3D

 52 49  0  0  0  0  0  0  0  0999 V2000
   48.5267    4.7656   20.2130 Na  0  0  0  0  0 15  0  0  0  0  0  0
   49.9788    5.2936   20.4415 C   0  0  0  0  0  0  0  0  0  0  0  0
   50.8941    4.5167   20.8403 O   0  0  0  0  0  0  0  0  0  0  0  0
   50.0590    6.4944   20.0587 O   0  0  0  0  0  0  0  0  0  0  0  0
   48.5713    4.6637   20.4204 C   0  0  0  0  0  0  0  0  0  0  0  0
   47.5255    5.5542   21.1148 C   0  0  0  0  0  0  0  0  0  0  0  0
   48.1860    4.4545   18.9419 C   0  0  0  0  0  0  0  0  0  0  0  0
   49.0646    3.4199   18.2299 C   0  0  0  0  0  0  0  0  0  0  0  0
   47.5465    5.4882   22.6470 C   0  0  0  0  0  0  0  0  0  0  0  0
   48.7566    6.1399   23.2945 C   0  0  0  0  0  0  0  0  0  0  0  0
   48.5893    3.1755   16.8056 C   0  0  0  0  0  0  0  0  0  0  0  0
   49.7006    5.8988   19.9040 C   0  0  0  0  0  0  0  0  0  0  0  0
   50.8241    5.5467   20.2223 O   0  0  0  0  0  0  0  0  0  0  0  0
   48.4235    5.1000   20.0508 C   0  0  0  0  0  0  0  0  0  0  0  0
   49.4922    7.1122   19.3582 O   0  0  0  0  0  0  0  0  0  0  0  0
   48.1789    4.7822   21.5361 C   0  0  0  0  0  0  0  0  0  0  0  0
   48.5258    3.8037   19.2284 C   0  0  0  0  0  0  0  0  0  0  0  0
   47.8698    6.0347   22.3624 C   0  0  0  0  0  0  0  0  0  0  0  0
   48.5678    4.0662   17.7196 C   0  0  0  0  0  0  0  0  0  0  0  0
   48.6135    2.7662   16.9315 C   0  0  0  0  0  0  0  0  0  0  0  0
   47.5788    5.6840   23.8134 C   0  0  0  0  0  0  0  0  0  0  0  0
   48.5951    3.6867   20.9201 H   0  0  0  0  0  0  0  0  0  0  0  0
   47.6178    6.5987   20.7934 H   0  0  0  0  0  0  0  0  0  0  0  0
   46.5249    5.2283   20.8015 H   0  0  0  0  0  0  0  0  0  0  0  0
   48.2288    5.4059   18.3961 H   0  0  0  0  0  0  0  0  0  0  0  0
   47.1442    4.1124   18.8909 H   0  0  0  0  0  0  0  0  0  0  0  0
   50.1058    3.7584   18.1977 H   0  0  0  0  0  0  0  0  0  0  0  0
   49.0455    2.4730   18.7816 H   0  0  0  0  0  0  0  0  0  0  0  0
   47.4705    4.4459   22.9783 H   0  0  0  0  0  0  0  0  0  0  0  0
   46.6490    5.9988   23.0181 H   0  0  0  0  0  0  0  0  0  0  0  0
   49.6661    5.5592   23.1230 H   0  0  0  0  0  0  0  0  0  0  0  0
   48.6120    6.2012   24.3783 H   0  0  0  0  0  0  0  0  0  0  0  0
   48.9096    7.1557   22.9173 H   0  0  0  0  0  0  0  0  0  0  0  0
   47.5624    2.7963   16.7937 H   0  0  0  0  0  0  0  0  0  0  0  0
   49.2296    2.4363   16.3141 H   0  0  0  0  0  0  0  0  0  0  0  0
   48.6222    4.0983   16.2176 H   0  0  0  0  0  0  0  0  0  0  0  0
   47.5812    5.6933   19.6725 H   0  0  0  0  0  0  0  0  0  0  0  0
   50.3864    7.5122   19.3231 H   0  0  0  0  0  0  0  0  0  0  0  0
   47.3329    4.0884   21.6216 H   0  0  0  0  0  0  0  0  0  0  0  0
   49.0523    4.2722   21.9623 H   0  0  0  0  0  0  0  0  0  0  0  0
   49.4189    3.2383   19.5238 H   0  0  0  0  0  0  0  0  0  0  0  0
   47.6595    3.1674   19.4494 H   0  0  0  0  0  0  0  0  0  0  0  0
   47.0032    6.5551   21.9385 H   0  0  0  0  0  0  0  0  0  0  0  0
   48.7152    6.7309   22.3301 H   0  0  0  0  0  0  0  0  0  0  0  0
   49.4472    4.6666   17.4614 H   0  0  0  0  0  0  0  0  0  0  0  0
   47.6830    4.6381   17.4170 H   0  0  0  0  0  0  0  0  0  0  0  0
   49.5033    2.1827   17.1889 H   0  0  0  0  0  0  0  0  0  0  0  0
   48.6428    2.9750   15.8576 H   0  0  0  0  0  0  0  0  0  0  0  0
   47.7295    2.1530   17.1341 H   0  0  0  0  0  0  0  0  0  0  0  0
   46.7136    5.0177   23.8905 H   0  0  0  0  0  0  0  0  0  0  0  0
   48.4376    5.1881   24.2767 H   0  0  0  0  0  0  0  0  0  0  0  0
   47.3605    6.5910   24.3860 H   0  0  0  0  0  0  0  0  0  0  0  0
  3  2  1  0
  4  2  2  0
  5  2  1  0
  6  5  1  0
  7  5  1  0
  8  7  1  0
  9  6  1  0
 10  9  1  0
 11  8  1  0
 13 12  2  0
 14 12  1  0
 15 12  1  0
 16 14  1  0
 17 14  1  0
 18 16  1  0
 19 17  1  0
 20 19  1  0
 21 18  1  0
  5 22  1  0
  6 23  1  0
  6 24  1  0
  7 25  1  0
  7 26  1  0
  8 27  1  0
  8 28  1  0
  9 29  1  0
  9 30  1  0
 10 31  1  0
 10 32  1  0
 10 33  1  0
 11 34  1  0
 11 35  1  0
 11 36  1  0
 14 37  1  0
 15 38  1  0
 16 39  1  0
 16 40  1  0
 17 41  1  0
 17 42  1  0
 18 43  1  0
 18 44  1  0
 19 45  1  0
 19 46  1  0
 20 47  1  0
 20 48  1  0
 20 49  1  0
 21 50  1  0
 21 51  1  0
 21 52  1  0
M  CHG  2   1   1   3  -1
M  END
> <Uni-Dock RESULT> 
ENERGY=   -4.683  LOWER_BOUND=    9.057  UPPER_BOUND=   10.642
INTER + INTRA:          -4.683
INTER:                  -4.683
INTRA:                   0.000
UNBOUND:                 0.000

$$$$
