
     RDKit          3D

 52 49  0  0  0  0  0  0  0  0999 V2000
   48.2060    6.0024   19.3055 Na  0  0  0  0  0 15  0  0  0  0  0  0
   48.2077    5.1580   21.3709 C   0  0  0  0  0  0  0  0  0  0  0  0
   47.2617    4.9026   22.1706 O   0  0  0  0  0  0  0  0  0  0  0  0
   49.4514    4.9997   21.5244 O   0  0  0  0  0  0  0  0  0  0  0  0
   47.7595    5.7539   20.0200 C   0  0  0  0  0  0  0  0  0  0  0  0
   48.0462    7.2614   20.1400 C   0  0  0  0  0  0  0  0  0  0  0  0
   48.4800    5.1051   18.8305 C   0  0  0  0  0  0  0  0  0  0  0  0
   48.1425    3.6170   18.6869 C   0  0  0  0  0  0  0  0  0  0  0  0
   47.3939    8.0868   19.0274 C   0  0  0  0  0  0  0  0  0  0  0  0
   47.6169    9.5767   19.2392 C   0  0  0  0  0  0  0  0  0  0  0  0
   48.8259    3.0078   17.4723 C   0  0  0  0  0  0  0  0  0  0  0  0
   49.4815    6.4953   18.2948 C   0  0  0  0  0  0  0  0  0  0  0  0
   49.1504    7.2545   17.4001 O   0  0  0  0  0  0  0  0  0  0  0  0
   48.5715    5.6962   19.2051 C   0  0  0  0  0  0  0  0  0  0  0  0
   50.7856    6.3042   18.5770 O   0  0  0  0  0  0  0  0  0  0  0  0
   47.2138    5.4091   18.5394 C   0  0  0  0  0  0  0  0  0  0  0  0
   48.4304    6.4120   20.5622 C   0  0  0  0  0  0  0  0  0  0  0  0
   47.2803    4.4756   17.3231 C   0  0  0  0  0  0  0  0  0  0  0  0
   47.6737    7.7434   20.5164 C   0  0  0  0  0  0  0  0  0  0  0  0
   47.6369    8.4038   21.8871 C   0  0  0  0  0  0  0  0  0  0  0  0
   47.7228    3.0602   17.6612 C   0  0  0  0  0  0  0  0  0  0  0  0
   46.6777    5.6011   19.9105 H   0  0  0  0  0  0  0  0  0  0  0  0
   49.1295    7.4403   20.1365 H   0  0  0  0  0  0  0  0  0  0  0  0
   47.6774    7.6284   21.1075 H   0  0  0  0  0  0  0  0  0  0  0  0
   48.1896    5.6125   17.9035 H   0  0  0  0  0  0  0  0  0  0  0  0
   49.5664    5.2254   18.9255 H   0  0  0  0  0  0  0  0  0  0  0  0
   48.4546    3.0658   19.5807 H   0  0  0  0  0  0  0  0  0  0  0  0
   47.0580    3.4904   18.5892 H   0  0  0  0  0  0  0  0  0  0  0  0
   46.3167    7.8865   18.9978 H   0  0  0  0  0  0  0  0  0  0  0  0
   47.8053    7.8081   18.0519 H   0  0  0  0  0  0  0  0  0  0  0  0
   47.1448   10.1485   18.4342 H   0  0  0  0  0  0  0  0  0  0  0  0
   47.1847    9.9077   20.1889 H   0  0  0  0  0  0  0  0  0  0  0  0
   48.6852    9.8162   19.2451 H   0  0  0  0  0  0  0  0  0  0  0  0
   48.5081    3.5070   16.5514 H   0  0  0  0  0  0  0  0  0  0  0  0
   49.9144    3.0921   17.5516 H   0  0  0  0  0  0  0  0  0  0  0  0
   48.5724    1.9464   17.3877 H   0  0  0  0  0  0  0  0  0  0  0  0
   49.0695    4.7380   19.3959 H   0  0  0  0  0  0  0  0  0  0  0  0
   51.2523    6.8755   17.9316 H   0  0  0  0  0  0  0  0  0  0  0  0
   46.7547    6.3487   18.2077 H   0  0  0  0  0  0  0  0  0  0  0  0
   46.5321    4.9709   19.2794 H   0  0  0  0  0  0  0  0  0  0  0  0
   49.4305    6.5876   20.9797 H   0  0  0  0  0  0  0  0  0  0  0  0
   47.9184    5.7379   21.2611 H   0  0  0  0  0  0  0  0  0  0  0  0
   47.9423    4.8907   16.5554 H   0  0  0  0  0  0  0  0  0  0  0  0
   46.2795    4.4252   16.8771 H   0  0  0  0  0  0  0  0  0  0  0  0
   46.6440    7.5850   20.1790 H   0  0  0  0  0  0  0  0  0  0  0  0
   48.1500    8.4286   19.8070 H   0  0  0  0  0  0  0  0  0  0  0  0
   47.0925    9.3520   21.8363 H   0  0  0  0  0  0  0  0  0  0  0  0
   48.6484    8.6122   22.2496 H   0  0  0  0  0  0  0  0  0  0  0  0
   47.1345    7.7624   22.6180 H   0  0  0  0  0  0  0  0  0  0  0  0
   47.6290    2.4179   16.7795 H   0  0  0  0  0  0  0  0  0  0  0  0
   47.1046    2.6335   18.4573 H   0  0  0  0  0  0  0  0  0  0  0  0
   48.7688    3.0303   17.9793 H   0  0  0  0  0  0  0  0  0  0  0  0
  3  2  1  0
  4  2  2  0
  5  2  1  0
  6  5  1  0
  7  5  1  0
  8  7  1  0
  9  6  1  0
 10  9  1  0
 11  8  1  0
 13 12  2  0
 14 12  1  0
 15 12  1  0
 16 14  1  0
 17 14  1  0
 18 16  1  0
 19 17  1  0
 20 19  1  0
 21 18  1  0
  5 22  1  0
  6 23  1  0
  6 24  1  0
  7 25  1  0
  7 26  1  0
  8 27  1  0
  8 28  1  0
  9 29  1  0
  9 30  1  0
 10 31  1  0
 10 32  1  0
 10 33  1  0
 11 34  1  0
 11 35  1  0
 11 36  1  0
 14 37  1  0
 15 38  1  0
 16 39  1  0
 16 40  1  0
 17 41  1  0
 17 42  1  0
 18 43  1  0
 18 44  1  0
 19 45  1  0
 19 46  1  0
 20 47  1  0
 20 48  1  0
 20 49  1  0
 21 50  1  0
 21 51  1  0
 21 52  1  0
M  CHG  2   1   1   3  -1
M  END
> <Uni-Dock RESULT> 
ENERGY=   -4.629  LOWER_BOUND=    0.000  UPPER_BOUND=    0.000
INTER + INTRA:          -4.629
INTER:                  -4.629
INTRA:                   0.000
UNBOUND:                 0.000

$$$$

     RDKit          3D

 52 49  0  0  0  0  0  0  0  0999 V2000
   48.8268    4.7559   19.0442 Na  0  0  0  0  0 15  0  0  0  0  0  0
   51.0067    4.7305   18.5685 C   0  0  0  0  0  0  0  0  0  0  0  0
   51.8998    3.8617   18.7856 O   0  0  0  0  0  0  0  0  0  0  0  0
   51.1044    5.8565   18.0047 O   0  0  0  0  0  0  0  0  0  0  0  0
   49.6023    4.3448   19.0782 C   0  0  0  0  0  0  0  0  0  0  0  0
   49.4270    5.1362   20.3867 C   0  0  0  0  0  0  0  0  0  0  0  0
   48.5060    4.6492   18.0484 C   0  0  0  0  0  0  0  0  0  0  0  0
   48.6579    3.8139   16.7725 C   0  0  0  0  0  0  0  0  0  0  0  0
   48.2280    4.6673   21.2156 C   0  0  0  0  0  0  0  0  0  0  0  0
   48.1502    5.4049   22.5439 C   0  0  0  0  0  0  0  0  0  0  0  0
   47.5322    4.0939   15.7886 C   0  0  0  0  0  0  0  0  0  0  0  0
   47.6618    5.9859   18.8987 C   0  0  0  0  0  0  0  0  0  0  0  0
   46.6676    5.8215   19.5850 O   0  0  0  0  0  0  0  0  0  0  0  0
   48.7599    4.9810   18.6172 C   0  0  0  0  0  0  0  0  0  0  0  0
   47.8879    7.1733   18.3022 O   0  0  0  0  0  0  0  0  0  0  0  0
   48.2481    3.5341   18.7345 C   0  0  0  0  0  0  0  0  0  0  0  0
   49.9705    5.2606   19.5284 C   0  0  0  0  0  0  0  0  0  0  0  0
   47.2202    3.1290   17.6694 C   0  0  0  0  0  0  0  0  0  0  0  0
   49.7331    4.9985   21.0192 C   0  0  0  0  0  0  0  0  0  0  0  0
   50.9601    5.3585   21.8444 C   0  0  0  0  0  0  0  0  0  0  0  0
   47.7805    3.1061   16.2554 C   0  0  0  0  0  0  0  0  0  0  0  0
   49.5936    3.2702   19.3039 H   0  0  0  0  0  0  0  0  0  0  0  0
   49.3199    6.2069   20.1678 H   0  0  0  0  0  0  0  0  0  0  0  0
   50.3337    5.0370   20.9988 H   0  0  0  0  0  0  0  0  0  0  0  0
   47.5233    4.4337   18.4830 H   0  0  0  0  0  0  0  0  0  0  0  0
   48.5059    5.7152   17.7890 H   0  0  0  0  0  0  0  0  0  0  0  0
   49.6147    4.0306   16.2847 H   0  0  0  0  0  0  0  0  0  0  0  0
   48.6562    2.7472   17.0251 H   0  0  0  0  0  0  0  0  0  0  0  0
   48.3061    3.5910   21.4076 H   0  0  0  0  0  0  0  0  0  0  0  0
   47.2946    4.8351   20.6687 H   0  0  0  0  0  0  0  0  0  0  0  0
   47.2873    5.0569   23.1203 H   0  0  0  0  0  0  0  0  0  0  0  0
   49.0501    5.2322   23.1427 H   0  0  0  0  0  0  0  0  0  0  0  0
   48.0423    6.4831   22.3878 H   0  0  0  0  0  0  0  0  0  0  0  0
   46.5587    3.8509   16.2263 H   0  0  0  0  0  0  0  0  0  0  0  0
   47.5233    5.1478   15.4929 H   0  0  0  0  0  0  0  0  0  0  0  0
   47.6590    3.4885   14.8857 H   0  0  0  0  0  0  0  0  0  0  0  0
   49.0888    5.1458   17.5841 H   0  0  0  0  0  0  0  0  0  0  0  0
   47.1201    7.7209   18.5693 H   0  0  0  0  0  0  0  0  0  0  0  0
   47.7819    3.3816   19.7158 H   0  0  0  0  0  0  0  0  0  0  0  0
   49.0986    2.8427   18.6803 H   0  0  0  0  0  0  0  0  0  0  0  0
   50.2825    6.3051   19.3982 H   0  0  0  0  0  0  0  0  0  0  0  0
   50.8125    4.6427   19.1903 H   0  0  0  0  0  0  0  0  0  0  0  0
   46.3481    3.7908   17.7051 H   0  0  0  0  0  0  0  0  0  0  0  0
   46.8575    2.1224   17.9113 H   0  0  0  0  0  0  0  0  0  0  0  0
   49.4984    3.9422   21.1876 H   0  0  0  0  0  0  0  0  0  0  0  0
   48.8812    5.5855   21.3787 H   0  0  0  0  0  0  0  0  0  0  0  0
   50.7735    5.1644   22.9052 H   0  0  0  0  0  0  0  0  0  0  0  0
   51.2115    6.4179   21.7322 H   0  0  0  0  0  0  0  0  0  0  0  0
   51.8269    4.7645   21.5377 H   0  0  0  0  0  0  0  0  0  0  0  0
   47.0383    2.6915   15.5653 H   0  0  0  0  0  0  0  0  0  0  0  0
   48.6797    2.4848   16.1977 H   0  0  0  0  0  0  0  0  0  0  0  0
   48.0293    4.1116   15.9044 H   0  0  0  0  0  0  0  0  0  0  0  0
  3  2  1  0
  4  2  2  0
  5  2  1  0
  6  5  1  0
  7  5  1  0
  8  7  1  0
  9  6  1  0
 10  9  1  0
 11  8  1  0
 13 12  2  0
 14 12  1  0
 15 12  1  0
 16 14  1  0
 17 14  1  0
 18 16  1  0
 19 17  1  0
 20 19  1  0
 21 18  1  0
  5 22  1  0
  6 23  1  0
  6 24  1  0
  7 25  1  0
  7 26  1  0
  8 27  1  0
  8 28  1  0
  9 29  1  0
  9 30  1  0
 10 31  1  0
 10 32  1  0
 10 33  1  0
 11 34  1  0
 11 35  1  0
 11 36  1  0
 14 37  1  0
 15 38  1  0
 16 39  1  0
 16 40  1  0
 17 41  1  0
 17 42  1  0
 18 43  1  0
 18 44  1  0
 19 45  1  0
 19 46  1  0
 20 47  1  0
 20 48  1  0
 20 49  1  0
 21 50  1  0
 21 51  1  0
 21 52  1  0
M  CHG  2   1   1   3  -1
M  END
> <Uni-Dock RESULT> 
ENERGY=   -4.405  LOWER_BOUND=    1.872  UPPER_BOUND=    3.159
INTER + INTRA:          -4.405
INTER:                  -4.405
INTRA:                   0.000
UNBOUND:                 0.000

$$$$

     RDKit          3D

 52 49  0  0  0  0  0  0  0  0999 V2000
   45.4868    6.0889   12.4383 Na  0  0  0  0  0 15  0  0  0  0  0  0
   47.1084    5.3290   13.7694 C   0  0  0  0  0  0  0  0  0  0  0  0
   47.2200    5.3189   15.0292 O   0  0  0  0  0  0  0  0  0  0  0  0
   47.9067    4.8979   12.8908 O   0  0  0  0  0  0  0  0  0  0  0  0
   45.8050    5.9698   13.2483 C   0  0  0  0  0  0  0  0  0  0  0  0
   46.2180    7.3761   12.7783 C   0  0  0  0  0  0  0  0  0  0  0  0
   45.1532    5.1388   12.1349 C   0  0  0  0  0  0  0  0  0  0  0  0
   44.6946    3.7623   12.6285 C   0  0  0  0  0  0  0  0  0  0  0  0
   45.0223    8.2936   12.5078 C   0  0  0  0  0  0  0  0  0  0  0  0
   45.4742    9.7000   12.1440 C   0  0  0  0  0  0  0  0  0  0  0  0
   44.0057    2.9776   11.5226 C   0  0  0  0  0  0  0  0  0  0  0  0
   45.4073    6.2492   10.7473 C   0  0  0  0  0  0  0  0  0  0  0  0
   44.5626    7.0362   10.3553 O   0  0  0  0  0  0  0  0  0  0  0  0
   45.5743    5.7050   12.1513 C   0  0  0  0  0  0  0  0  0  0  0  0
   46.3422    5.7762    9.8993 O   0  0  0  0  0  0  0  0  0  0  0  0
   44.2435    5.7129   12.9245 C   0  0  0  0  0  0  0  0  0  0  0  0
   46.6920    6.4749   12.8808 C   0  0  0  0  0  0  0  0  0  0  0  0
   43.1786    4.7522   12.3784 C   0  0  0  0  0  0  0  0  0  0  0  0
   46.3728    7.9411   13.1901 C   0  0  0  0  0  0  0  0  0  0  0  0
   47.5536    8.6339   13.8548 C   0  0  0  0  0  0  0  0  0  0  0  0
   43.5572    3.2842   12.5024 C   0  0  0  0  0  0  0  0  0  0  0  0
   45.1004    6.0628   14.0853 H   0  0  0  0  0  0  0  0  0  0  0  0
   46.8326    7.3047   11.8712 H   0  0  0  0  0  0  0  0  0  0  0  0
   46.8517    7.8462   13.5426 H   0  0  0  0  0  0  0  0  0  0  0  0
   44.2785    5.6705   11.7434 H   0  0  0  0  0  0  0  0  0  0  0  0
   45.8449    5.0128   11.2926 H   0  0  0  0  0  0  0  0  0  0  0  0
   45.5494    3.1820   12.9928 H   0  0  0  0  0  0  0  0  0  0  0  0
   44.0010    3.8818   13.4689 H   0  0  0  0  0  0  0  0  0  0  0  0
   44.3815    8.3418   13.3958 H   0  0  0  0  0  0  0  0  0  0  0  0
   44.4146    7.8996   11.6869 H   0  0  0  0  0  0  0  0  0  0  0  0
   44.6064   10.3393   11.9536 H   0  0  0  0  0  0  0  0  0  0  0  0
   46.0544   10.1490   12.9565 H   0  0  0  0  0  0  0  0  0  0  0  0
   46.0945    9.6914   11.2420 H   0  0  0  0  0  0  0  0  0  0  0  0
   43.1199    3.5077   11.1582 H   0  0  0  0  0  0  0  0  0  0  0  0
   44.6819    2.8155   10.6772 H   0  0  0  0  0  0  0  0  0  0  0  0
   43.6863    1.9992   11.8948 H   0  0  0  0  0  0  0  0  0  0  0  0
   45.9089    4.6651   12.0547 H   0  0  0  0  0  0  0  0  0  0  0  0
   46.1255    6.2071    9.0460 H   0  0  0  0  0  0  0  0  0  0  0  0
   43.8122    6.7216   12.9146 H   0  0  0  0  0  0  0  0  0  0  0  0
   44.4332    5.4631   13.9762 H   0  0  0  0  0  0  0  0  0  0  0  0
   47.6084    6.4319   12.2776 H   0  0  0  0  0  0  0  0  0  0  0  0
   46.9173    5.9558   13.8214 H   0  0  0  0  0  0  0  0  0  0  0  0
   42.9528    4.9831   11.3317 H   0  0  0  0  0  0  0  0  0  0  0  0
   42.2512    4.9163   12.9406 H   0  0  0  0  0  0  0  0  0  0  0  0
   45.5080    8.0099   13.8584 H   0  0  0  0  0  0  0  0  0  0  0  0
   46.1202    8.4788   12.2699 H   0  0  0  0  0  0  0  0  0  0  0  0
   47.3082    9.6787   14.0692 H   0  0  0  0  0  0  0  0  0  0  0  0
   48.4342    8.6186   13.2048 H   0  0  0  0  0  0  0  0  0  0  0  0
   47.8140    8.1454   14.7990 H   0  0  0  0  0  0  0  0  0  0  0  0
   42.7102    2.6534   12.2133 H   0  0  0  0  0  0  0  0  0  0  0  0
   43.8295    3.0330   13.5323 H   0  0  0  0  0  0  0  0  0  0  0  0
   44.3955    3.0278   11.8486 H   0  0  0  0  0  0  0  0  0  0  0  0
  3  2  1  0
  4  2  2  0
  5  2  1  0
  6  5  1  0
  7  5  1  0
  8  7  1  0
  9  6  1  0
 10  9  1  0
 11  8  1  0
 13 12  2  0
 14 12  1  0
 15 12  1  0
 16 14  1  0
 17 14  1  0
 18 16  1  0
 19 17  1  0
 20 19  1  0
 21 18  1  0
  5 22  1  0
  6 23  1  0
  6 24  1  0
  7 25  1  0
  7 26  1  0
  8 27  1  0
  8 28  1  0
  9 29  1  0
  9 30  1  0
 10 31  1  0
 10 32  1  0
 10 33  1  0
 11 34  1  0
 11 35  1  0
 11 36  1  0
 14 37  1  0
 15 38  1  0
 16 39  1  0
 16 40  1  0
 17 41  1  0
 17 42  1  0
 18 43  1  0
 18 44  1  0
 19 45  1  0
 19 46  1  0
 20 47  1  0
 20 48  1  0
 20 49  1  0
 21 50  1  0
 21 51  1  0
 21 52  1  0
M  CHG  2   1   1   3  -1
M  END
> <Uni-Dock RESULT> 
ENERGY=   -4.266  LOWER_BOUND=    6.068  UPPER_BOUND=    7.627
INTER + INTRA:          -4.266
INTER:                  -4.266
INTRA:                   0.000
UNBOUND:                 0.000

$$$$

     RDKit          3D

 52 49  0  0  0  0  0  0  0  0999 V2000
   47.7290    9.6572   20.8309 Na  0  0  0  0  0 15  0  0  0  0  0  0
   48.1077    8.1658   19.2150 C   0  0  0  0  0  0  0  0  0  0  0  0
   47.3263    7.3882   18.5950 O   0  0  0  0  0  0  0  0  0  0  0  0
   49.3549    8.3184   19.0862 O   0  0  0  0  0  0  0  0  0  0  0  0
   47.4220    9.0427   20.2835 C   0  0  0  0  0  0  0  0  0  0  0  0
   47.7530    8.3618   21.6236 C   0  0  0  0  0  0  0  0  0  0  0  0
   47.8919   10.5025   20.2268 C   0  0  0  0  0  0  0  0  0  0  0  0
   47.5068   11.1872   18.9108 C   0  0  0  0  0  0  0  0  0  0  0  0
   46.9162    8.8944   22.7901 C   0  0  0  0  0  0  0  0  0  0  0  0
   47.2019    8.1275   24.0726 C   0  0  0  0  0  0  0  0  0  0  0  0
   47.9362   12.6462   18.8981 C   0  0  0  0  0  0  0  0  0  0  0  0
   48.7980   10.5838   21.7743 C   0  0  0  0  0  0  0  0  0  0  0  0
   48.3167   11.0072   22.8114 O   0  0  0  0  0  0  0  0  0  0  0  0
   48.0633    9.9397   20.6166 C   0  0  0  0  0  0  0  0  0  0  0  0
   50.1284   10.6461   21.5666 O   0  0  0  0  0  0  0  0  0  0  0  0
   46.5990   10.4081   20.5433 C   0  0  0  0  0  0  0  0  0  0  0  0
   48.1951    8.4068   20.7017 C   0  0  0  0  0  0  0  0  0  0  0  0
   46.4168   11.8922   20.1975 C   0  0  0  0  0  0  0  0  0  0  0  0
   47.4673    7.7591   21.8842 C   0  0  0  0  0  0  0  0  0  0  0  0
   47.7032    6.2560   21.9200 C   0  0  0  0  0  0  0  0  0  0  0  0
   46.8902   12.2574   18.7989 C   0  0  0  0  0  0  0  0  0  0  0  0
   46.3364    9.0091   20.1214 H   0  0  0  0  0  0  0  0  0  0  0  0
   48.8190    8.4858   21.8559 H   0  0  0  0  0  0  0  0  0  0  0  0
   47.5811    7.2803   21.5371 H   0  0  0  0  0  0  0  0  0  0  0  0
   47.4399   11.0665   21.0506 H   0  0  0  0  0  0  0  0  0  0  0  0
   48.9785   10.5634   20.3656 H   0  0  0  0  0  0  0  0  0  0  0  0
   47.9730   10.6749   18.0621 H   0  0  0  0  0  0  0  0  0  0  0  0
   46.4214   11.1316   18.7676 H   0  0  0  0  0  0  0  0  0  0  0  0
   45.8495    8.8100   22.5523 H   0  0  0  0  0  0  0  0  0  0  0  0
   47.1299    9.9541   22.9629 H   0  0  0  0  0  0  0  0  0  0  0  0
   46.5958    8.5232   24.8935 H   0  0  0  0  0  0  0  0  0  0  0  0
   46.9637    7.0653   23.9567 H   0  0  0  0  0  0  0  0  0  0  0  0
   48.2559    8.2151   24.3552 H   0  0  0  0  0  0  0  0  0  0  0  0
   47.4583   13.2033   19.7103 H   0  0  0  0  0  0  0  0  0  0  0  0
   49.0213   12.7365   19.0107 H   0  0  0  0  0  0  0  0  0  0  0  0
   47.6525   13.1164   17.9514 H   0  0  0  0  0  0  0  0  0  0  0  0
   48.5713   10.2566   19.6978 H   0  0  0  0  0  0  0  0  0  0  0  0
   50.4742   11.0687   22.3806 H   0  0  0  0  0  0  0  0  0  0  0  0
   46.1021   10.2314   21.5053 H   0  0  0  0  0  0  0  0  0  0  0  0
   46.0625    9.8072   19.7980 H   0  0  0  0  0  0  0  0  0  0  0  0
   49.2593    8.1417   20.7530 H   0  0  0  0  0  0  0  0  0  0  0  0
   47.8132    7.9710   19.7694 H   0  0  0  0  0  0  0  0  0  0  0  0
   46.9284   12.5238   20.9319 H   0  0  0  0  0  0  0  0  0  0  0  0
   45.3488   12.1307   20.2717 H   0  0  0  0  0  0  0  0  0  0  0  0
   46.3897    7.9404   21.8138 H   0  0  0  0  0  0  0  0  0  0  0  0
   47.8124    8.1932   22.8286 H   0  0  0  0  0  0  0  0  0  0  0  0
   47.1760    5.8100   22.7691 H   0  0  0  0  0  0  0  0  0  0  0  0
   48.7687    6.0283   22.0244 H   0  0  0  0  0  0  0  0  0  0  0  0
   47.3373    5.7798   21.0049 H   0  0  0  0  0  0  0  0  0  0  0  0
   46.6193   13.2935   18.5706 H   0  0  0  0  0  0  0  0  0  0  0  0
   46.4268   11.6132   18.0451 H   0  0  0  0  0  0  0  0  0  0  0  0
   47.9768   12.1745   18.7069 H   0  0  0  0  0  0  0  0  0  0  0  0
  3  2  1  0
  4  2  2  0
  5  2  1  0
  6  5  1  0
  7  5  1  0
  8  7  1  0
  9  6  1  0
 10  9  1  0
 11  8  1  0
 13 12  2  0
 14 12  1  0
 15 12  1  0
 16 14  1  0
 17 14  1  0
 18 16  1  0
 19 17  1  0
 20 19  1  0
 21 18  1  0
  5 22  1  0
  6 23  1  0
  6 24  1  0
  7 25  1  0
  7 26  1  0
  8 27  1  0
  8 28  1  0
  9 29  1  0
  9 30  1  0
 10 31  1  0
 10 32  1  0
 10 33  1  0
 11 34  1  0
 11 35  1  0
 11 36  1  0
 14 37  1  0
 15 38  1  0
 16 39  1  0
 16 40  1  0
 17 41  1  0
 17 42  1  0
 18 43  1  0
 18 44  1  0
 19 45  1  0
 19 46  1  0
 20 47  1  0
 20 48  1  0
 20 49  1  0
 21 50  1  0
 21 51  1  0
 21 52  1  0
M  CHG  2   1   1   3  -1
M  END
> <Uni-Dock RESULT> 
ENERGY=   -4.185  LOWER_BOUND=    3.079  UPPER_BOUND=    5.425
INTER + INTRA:          -4.185
INTER:                  -4.185
INTRA:                   0.000
UNBOUND:                 0.000

$$$$

     RDKit          3D

 52 49  0  0  0  0  0  0  0  0999 V2000
   47.7267    9.6295   20.9219 Na  0  0  0  0  0 15  0  0  0  0  0  0
   48.0716    8.0948   19.3392 C   0  0  0  0  0  0  0  0  0  0  0  0
   47.2748    7.3122   18.7457 O   0  0  0  0  0  0  0  0  0  0  0  0
   49.3192    8.2288   19.1951 O   0  0  0  0  0  0  0  0  0  0  0  0
   47.4069    9.0058   20.3925 C   0  0  0  0  0  0  0  0  0  0  0  0
   47.7426    8.3534   21.7456 C   0  0  0  0  0  0  0  0  0  0  0  0
   47.8940   10.4579   20.2959 C   0  0  0  0  0  0  0  0  0  0  0  0
   47.5045   11.1152   18.9674 C   0  0  0  0  0  0  0  0  0  0  0  0
   46.9237    8.9244   22.9066 C   0  0  0  0  0  0  0  0  0  0  0  0
   47.2125    8.1853   24.2046 C   0  0  0  0  0  0  0  0  0  0  0  0
   47.9515   12.5681   18.9152 C   0  0  0  0  0  0  0  0  0  0  0  0
   48.8160   10.5653   21.8324 C   0  0  0  0  0  0  0  0  0  0  0  0
   48.3499   11.0196   22.8634 O   0  0  0  0  0  0  0  0  0  0  0  0
   48.0623    9.9025   20.6976 C   0  0  0  0  0  0  0  0  0  0  0  0
   50.1449   10.6061   21.6107 O   0  0  0  0  0  0  0  0  0  0  0  0
   46.6032   10.3871   20.6267 C   0  0  0  0  0  0  0  0  0  0  0  0
   48.1763    8.3707   20.8188 C   0  0  0  0  0  0  0  0  0  0  0  0
   46.4357   11.8646   20.2467 C   0  0  0  0  0  0  0  0  0  0  0  0
   47.4522    7.7608   22.0234 C   0  0  0  0  0  0  0  0  0  0  0  0
   47.6701    6.2562   22.0935 C   0  0  0  0  0  0  0  0  0  0  0  0
   46.8999   12.1900   18.8353 C   0  0  0  0  0  0  0  0  0  0  0  0
   46.3196    8.9817   20.2415 H   0  0  0  0  0  0  0  0  0  0  0  0
   48.8122    8.4698   21.9648 H   0  0  0  0  0  0  0  0  0  0  0  0
   47.5568    7.2724   21.6870 H   0  0  0  0  0  0  0  0  0  0  0  0
   47.4569   11.0471   21.1100 H   0  0  0  0  0  0  0  0  0  0  0  0
   48.9826   10.5086   20.4230 H   0  0  0  0  0  0  0  0  0  0  0  0
   47.9562   10.5768   18.1270 H   0  0  0  0  0  0  0  0  0  0  0  0
   46.4172   11.0697   18.8357 H   0  0  0  0  0  0  0  0  0  0  0  0
   45.8538    8.8475   22.6810 H   0  0  0  0  0  0  0  0  0  0  0  0
   47.1520    9.9853   23.0516 H   0  0  0  0  0  0  0  0  0  0  0  0
   46.6192    8.6083   25.0214 H   0  0  0  0  0  0  0  0  0  0  0  0
   46.9603    7.1236   24.1169 H   0  0  0  0  0  0  0  0  0  0  0  0
   48.2702    8.2666   24.4751 H   0  0  0  0  0  0  0  0  0  0  0  0
   47.4883   13.1505   19.7180 H   0  0  0  0  0  0  0  0  0  0  0  0
   49.0387   12.6476   19.0153 H   0  0  0  0  0  0  0  0  0  0  0  0
   47.6643   13.0187   17.9600 H   0  0  0  0  0  0  0  0  0  0  0  0
   48.5652   10.1909   19.7667 H   0  0  0  0  0  0  0  0  0  0  0  0
   50.5038   11.0440   22.4109 H   0  0  0  0  0  0  0  0  0  0  0  0
   46.1135   10.2400   21.5974 H   0  0  0  0  0  0  0  0  0  0  0  0
   46.0522    9.7751   19.9014 H   0  0  0  0  0  0  0  0  0  0  0  0
   49.2376    8.0937   20.8664 H   0  0  0  0  0  0  0  0  0  0  0  0
   47.7801    7.9172   19.9010 H   0  0  0  0  0  0  0  0  0  0  0  0
   46.9620   12.5074   20.9607 H   0  0  0  0  0  0  0  0  0  0  0  0
   45.3714   12.1181   20.3252 H   0  0  0  0  0  0  0  0  0  0  0  0
   46.3762    7.9537   21.9588 H   0  0  0  0  0  0  0  0  0  0  0  0
   47.8117    8.2134   22.9537 H   0  0  0  0  0  0  0  0  0  0  0  0
   47.1458    5.8374   22.9582 H   0  0  0  0  0  0  0  0  0  0  0  0
   48.7337    6.0179   22.1934 H   0  0  0  0  0  0  0  0  0  0  0  0
   47.2896    5.7626   21.1938 H   0  0  0  0  0  0  0  0  0  0  0  0
   46.6394   13.2235   18.5844 H   0  0  0  0  0  0  0  0  0  0  0  0
   46.4214   11.5335   18.1018 H   0  0  0  0  0  0  0  0  0  0  0  0
   47.9845   12.0914   18.7351 H   0  0  0  0  0  0  0  0  0  0  0  0
  3  2  1  0
  4  2  2  0
  5  2  1  0
  6  5  1  0
  7  5  1  0
  8  7  1  0
  9  6  1  0
 10  9  1  0
 11  8  1  0
 13 12  2  0
 14 12  1  0
 15 12  1  0
 16 14  1  0
 17 14  1  0
 18 16  1  0
 19 17  1  0
 20 19  1  0
 21 18  1  0
  5 22  1  0
  6 23  1  0
  6 24  1  0
  7 25  1  0
  7 26  1  0
  8 27  1  0
  8 28  1  0
  9 29  1  0
  9 30  1  0
 10 31  1  0
 10 32  1  0
 10 33  1  0
 11 34  1  0
 11 35  1  0
 11 36  1  0
 14 37  1  0
 15 38  1  0
 16 39  1  0
 16 40  1  0
 17 41  1  0
 17 42  1  0
 18 43  1  0
 18 44  1  0
 19 45  1  0
 19 46  1  0
 20 47  1  0
 20 48  1  0
 20 49  1  0
 21 50  1  0
 21 51  1  0
 21 52  1  0
M  CHG  2   1   1   3  -1
M  END
> <Uni-Dock RESULT> 
ENERGY=   -4.165  LOWER_BOUND=    3.072  UPPER_BOUND=    5.407
INTER + INTRA:          -4.165
INTER:                  -4.165
INTRA:                   0.000
UNBOUND:                 0.000

$$$$

     RDKit          3D

 52 49  0  0  0  0  0  0  0  0999 V2000
   49.3608    4.9034   18.1012 Na  0  0  0  0  0 15  0  0  0  0  0  0
   47.6798    3.6639   17.3159 C   0  0  0  0  0  0  0  0  0  0  0  0
   47.0575    2.6843   17.8185 O   0  0  0  0  0  0  0  0  0  0  0  0
   47.5161    4.2289   16.1982 O   0  0  0  0  0  0  0  0  0  0  0  0
   48.8015    4.2347   18.2086 C   0  0  0  0  0  0  0  0  0  0  0  0
   50.1043    3.6727   17.6118 C   0  0  0  0  0  0  0  0  0  0  0  0
   48.7831    5.7685   18.2563 C   0  0  0  0  0  0  0  0  0  0  0  0
   47.5064    6.3152   18.9043 C   0  0  0  0  0  0  0  0  0  0  0  0
   51.3162    3.8661   18.5274 C   0  0  0  0  0  0  0  0  0  0  0  0
   52.5597    3.2093   17.9471 C   0  0  0  0  0  0  0  0  0  0  0  0
   47.5332    7.8337   18.9879 C   0  0  0  0  0  0  0  0  0  0  0  0
   50.3022    6.1122   17.3638 C   0  0  0  0  0  0  0  0  0  0  0  0
   51.3693    6.3251   17.9138 O   0  0  0  0  0  0  0  0  0  0  0  0
   49.1462    5.2866   17.8901 C   0  0  0  0  0  0  0  0  0  0  0  0
   50.0536    6.6219   16.1409 O   0  0  0  0  0  0  0  0  0  0  0  0
   49.1379    5.2386   19.4285 C   0  0  0  0  0  0  0  0  0  0  0  0
   49.1707    3.8852   17.2502 C   0  0  0  0  0  0  0  0  0  0  0  0
   48.8530    6.5834   20.1107 C   0  0  0  0  0  0  0  0  0  0  0  0
   50.3518    3.0031   17.6682 C   0  0  0  0  0  0  0  0  0  0  0  0
   50.3247    1.6657   16.9424 C   0  0  0  0  0  0  0  0  0  0  0  0
   47.4540    7.1191   19.8473 C   0  0  0  0  0  0  0  0  0  0  0  0
   48.6739    3.8429   19.2264 H   0  0  0  0  0  0  0  0  0  0  0  0
   50.3061    4.1414   16.6395 H   0  0  0  0  0  0  0  0  0  0  0  0
   49.9838    2.5985   17.4160 H   0  0  0  0  0  0  0  0  0  0  0  0
   49.6414    6.1286   18.8349 H   0  0  0  0  0  0  0  0  0  0  0  0
   48.8886    6.1869   17.2476 H   0  0  0  0  0  0  0  0  0  0  0  0
   46.6247    6.0091   18.3306 H   0  0  0  0  0  0  0  0  0  0  0  0
   47.3967    5.9024   19.9138 H   0  0  0  0  0  0  0  0  0  0  0  0
   51.1104    3.4347   19.5138 H   0  0  0  0  0  0  0  0  0  0  0  0
   51.5207    4.9318   18.6729 H   0  0  0  0  0  0  0  0  0  0  0  0
   53.4139    3.3595   18.6146 H   0  0  0  0  0  0  0  0  0  0  0  0
   52.4128    2.1319   17.8214 H   0  0  0  0  0  0  0  0  0  0  0  0
   52.8108    3.6386   16.9718 H   0  0  0  0  0  0  0  0  0  0  0  0
   48.3805    8.1789   19.5891 H   0  0  0  0  0  0  0  0  0  0  0  0
   47.6136    8.2799   17.9916 H   0  0  0  0  0  0  0  0  0  0  0  0
   46.6141    8.2037   19.4530 H   0  0  0  0  0  0  0  0  0  0  0  0
   48.2236    5.7772   17.5572 H   0  0  0  0  0  0  0  0  0  0  0  0
   50.8708    7.1167   15.9215 H   0  0  0  0  0  0  0  0  0  0  0  0
   50.1085    4.8828   19.7959 H   0  0  0  0  0  0  0  0  0  0  0  0
   48.3890    4.5103   19.7649 H   0  0  0  0  0  0  0  0  0  0  0  0
   49.1775    3.9910   16.1574 H   0  0  0  0  0  0  0  0  0  0  0  0
   48.2360    3.3687   17.5043 H   0  0  0  0  0  0  0  0  0  0  0  0
   49.5929    7.3324   19.8085 H   0  0  0  0  0  0  0  0  0  0  0  0
   48.9707    6.4482   21.1929 H   0  0  0  0  0  0  0  0  0  0  0  0
   50.3233    2.8143   18.7465 H   0  0  0  0  0  0  0  0  0  0  0  0
   51.2997    3.5054   17.4476 H   0  0  0  0  0  0  0  0  0  0  0  0
   51.1737    1.0488   17.2532 H   0  0  0  0  0  0  0  0  0  0  0  0
   50.3859    1.8061   15.8586 H   0  0  0  0  0  0  0  0  0  0  0  0
   49.4052    1.1162   17.1671 H   0  0  0  0  0  0  0  0  0  0  0  0
   47.2728    8.0095   20.4583 H   0  0  0  0  0  0  0  0  0  0  0  0
   46.6926    6.3748   20.1007 H   0  0  0  0  0  0  0  0  0  0  0  0
   47.3236    7.4075   18.8004 H   0  0  0  0  0  0  0  0  0  0  0  0
  3  2  1  0
  4  2  2  0
  5  2  1  0
  6  5  1  0
  7  5  1  0
  8  7  1  0
  9  6  1  0
 10  9  1  0
 11  8  1  0
 13 12  2  0
 14 12  1  0
 15 12  1  0
 16 14  1  0
 17 14  1  0
 18 16  1  0
 19 17  1  0
 20 19  1  0
 21 18  1  0
  5 22  1  0
  6 23  1  0
  6 24  1  0
  7 25  1  0
  7 26  1  0
  8 27  1  0
  8 28  1  0
  9 29  1  0
  9 30  1  0
 10 31  1  0
 10 32  1  0
 10 33  1  0
 11 34  1  0
 11 35  1  0
 11 36  1  0
 14 37  1  0
 15 38  1  0
 16 39  1  0
 16 40  1  0
 17 41  1  0
 17 42  1  0
 18 43  1  0
 18 44  1  0
 19 45  1  0
 19 46  1  0
 20 47  1  0
 20 48  1  0
 20 49  1  0
 21 50  1  0
 21 51  1  0
 21 52  1  0
M  CHG  2   1   1   3  -1
M  END
> <Uni-Dock RESULT> 
ENERGY=   -4.035  LOWER_BOUND=    2.009  UPPER_BOUND=    4.554
INTER + INTRA:          -4.035
INTER:                  -4.035
INTRA:                   0.000
UNBOUND:                 0.000

$$$$

     RDKit          3D

 52 49  0  0  0  0  0  0  0  0999 V2000
   47.9670   10.7576   19.5865 Na  0  0  0  0  0 15  0  0  0  0  0  0
   46.3083   12.0447   20.3423 C   0  0  0  0  0  0  0  0  0  0  0  0
   45.0947   12.1328   19.9975 O   0  0  0  0  0  0  0  0  0  0  0  0
   46.9351   12.6786   21.2371 O   0  0  0  0  0  0  0  0  0  0  0  0
   47.1279   11.0131   19.5391 C   0  0  0  0  0  0  0  0  0  0  0  0
   47.9364   11.8504   18.5319 C   0  0  0  0  0  0  0  0  0  0  0  0
   48.0175   10.1474   20.4415 C   0  0  0  0  0  0  0  0  0  0  0  0
   47.2000    9.2759   21.4011 C   0  0  0  0  0  0  0  0  0  0  0  0
   48.5857   11.0047   17.4330 C   0  0  0  0  0  0  0  0  0  0  0  0
   49.2890   11.8777   16.4045 C   0  0  0  0  0  0  0  0  0  0  0  0
   48.0997    8.3893   22.2484 C   0  0  0  0  0  0  0  0  0  0  0  0
   49.6308   10.7521   19.9372 C   0  0  0  0  0  0  0  0  0  0  0  0
   50.3207   10.2004   19.0969 O   0  0  0  0  0  0  0  0  0  0  0  0
   48.1201   10.7242   20.0479 C   0  0  0  0  0  0  0  0  0  0  0  0
   50.2018   11.5023   20.9006 O   0  0  0  0  0  0  0  0  0  0  0  0
   47.5285    9.4535   19.4120 C   0  0  0  0  0  0  0  0  0  0  0  0
   47.5286   12.0178   19.4556 C   0  0  0  0  0  0  0  0  0  0  0  0
   47.8849    8.1482   20.1362 C   0  0  0  0  0  0  0  0  0  0  0  0
   47.6909   12.1692   17.9396 C   0  0  0  0  0  0  0  0  0  0  0  0
   47.1321   13.4995   17.4556 C   0  0  0  0  0  0  0  0  0  0  0  0
   47.3034    8.0476   21.5381 C   0  0  0  0  0  0  0  0  0  0  0  0
   46.4333   10.3630   18.9908 H   0  0  0  0  0  0  0  0  0  0  0  0
   48.7135   12.4226   19.0558 H   0  0  0  0  0  0  0  0  0  0  0  0
   47.2769   12.5902   18.0581 H   0  0  0  0  0  0  0  0  0  0  0  0
   48.6365    9.4874   19.8233 H   0  0  0  0  0  0  0  0  0  0  0  0
   48.7089   10.7750   21.0176 H   0  0  0  0  0  0  0  0  0  0  0  0
   46.5949    9.9022   22.0658 H   0  0  0  0  0  0  0  0  0  0  0  0
   46.5086    8.6445   20.8310 H   0  0  0  0  0  0  0  0  0  0  0  0
   47.8229   10.4005   16.9284 H   0  0  0  0  0  0  0  0  0  0  0  0
   49.3181   10.3140   17.8631 H   0  0  0  0  0  0  0  0  0  0  0  0
   49.7469   11.2554   15.6293 H   0  0  0  0  0  0  0  0  0  0  0  0
   48.5834   12.5595   15.9193 H   0  0  0  0  0  0  0  0  0  0  0  0
   50.0787   12.4748   16.8717 H   0  0  0  0  0  0  0  0  0  0  0  0
   48.6937    7.7179   21.6200 H   0  0  0  0  0  0  0  0  0  0  0  0
   48.7854    8.9909   22.8535 H   0  0  0  0  0  0  0  0  0  0  0  0
   47.4976    7.7758   22.9258 H   0  0  0  0  0  0  0  0  0  0  0  0
   47.8767   10.7181   21.1171 H   0  0  0  0  0  0  0  0  0  0  0  0
   51.1611   11.4413   20.7089 H   0  0  0  0  0  0  0  0  0  0  0  0
   47.8746    9.3591   18.3753 H   0  0  0  0  0  0  0  0  0  0  0  0
   46.4355    9.5433   19.3710 H   0  0  0  0  0  0  0  0  0  0  0  0
   47.9925   12.8819   19.9491 H   0  0  0  0  0  0  0  0  0  0  0  0
   46.4599   12.0585   19.7029 H   0  0  0  0  0  0  0  0  0  0  0  0
   48.9716    8.0182   20.1822 H   0  0  0  0  0  0  0  0  0  0  0  0
   47.4960    7.3119   19.5424 H   0  0  0  0  0  0  0  0  0  0  0  0
   47.1669   11.3614   17.4179 H   0  0  0  0  0  0  0  0  0  0  0  0
   48.7484   12.1082   17.6612 H   0  0  0  0  0  0  0  0  0  0  0  0
   47.2552   13.5903   16.3719 H   0  0  0  0  0  0  0  0  0  0  0  0
   47.6523   14.3388   17.9279 H   0  0  0  0  0  0  0  0  0  0  0  0
   46.0650   13.5830   17.6844 H   0  0  0  0  0  0  0  0  0  0  0  0
   47.4871    7.0493   21.9488 H   0  0  0  0  0  0  0  0  0  0  0  0
   46.2220    8.2156   21.5294 H   0  0  0  0  0  0  0  0  0  0  0  0
   47.7624    8.7714   22.2175 H   0  0  0  0  0  0  0  0  0  0  0  0
  3  2  1  0
  4  2  2  0
  5  2  1  0
  6  5  1  0
  7  5  1  0
  8  7  1  0
  9  6  1  0
 10  9  1  0
 11  8  1  0
 13 12  2  0
 14 12  1  0
 15 12  1  0
 16 14  1  0
 17 14  1  0
 18 16  1  0
 19 17  1  0
 20 19  1  0
 21 18  1  0
  5 22  1  0
  6 23  1  0
  6 24  1  0
  7 25  1  0
  7 26  1  0
  8 27  1  0
  8 28  1  0
  9 29  1  0
  9 30  1  0
 10 31  1  0
 10 32  1  0
 10 33  1  0
 11 34  1  0
 11 35  1  0
 11 36  1  0
 14 37  1  0
 15 38  1  0
 16 39  1  0
 16 40  1  0
 17 41  1  0
 17 42  1  0
 18 43  1  0
 18 44  1  0
 19 45  1  0
 19 46  1  0
 20 47  1  0
 20 48  1  0
 20 49  1  0
 21 50  1  0
 21 51  1  0
 21 52  1  0
M  CHG  2   1   1   3  -1
M  END
> <Uni-Dock RESULT> 
ENERGY=   -3.826  LOWER_BOUND=    3.793  UPPER_BOUND=    5.693
INTER + INTRA:          -3.826
INTER:                  -3.826
INTRA:                   0.000
UNBOUND:                 0.000

$$$$

     RDKit          3D

 52 49  0  0  0  0  0  0  0  0999 V2000
   48.2085   11.0116   18.5813 Na  0  0  0  0  0 15  0  0  0  0  0  0
   48.4740    9.7267   16.7765 C   0  0  0  0  0  0  0  0  0  0  0  0
   47.6316    9.1990   15.9945 O   0  0  0  0  0  0  0  0  0  0  0  0
   49.7356    9.6717   16.7504 O   0  0  0  0  0  0  0  0  0  0  0  0
   47.8527   10.5476   17.9259 C   0  0  0  0  0  0  0  0  0  0  0  0
   47.9463    9.6317   19.1594 C   0  0  0  0  0  0  0  0  0  0  0  0
   48.5625   11.8929   18.1295 C   0  0  0  0  0  0  0  0  0  0  0  0
   48.4143   12.8185   16.9171 C   0  0  0  0  0  0  0  0  0  0  0  0
   47.1106   10.1301   20.3417 C   0  0  0  0  0  0  0  0  0  0  0  0
   47.1505    9.1469   21.5020 C   0  0  0  0  0  0  0  0  0  0  0  0
   49.0804   14.1639   17.1616 C   0  0  0  0  0  0  0  0  0  0  0  0
   49.3297   11.5862   19.7233 C   0  0  0  0  0  0  0  0  0  0  0  0
   48.8363   11.9338   20.7826 O   0  0  0  0  0  0  0  0  0  0  0  0
   48.6028   11.2580   18.4353 C   0  0  0  0  0  0  0  0  0  0  0  0
   50.6649   11.4399   19.6102 O   0  0  0  0  0  0  0  0  0  0  0  0
   47.2492   11.9854   18.3470 C   0  0  0  0  0  0  0  0  0  0  0  0
   48.4692    9.7303   18.2851 C   0  0  0  0  0  0  0  0  0  0  0  0
   47.3481   13.5124   18.2296 C   0  0  0  0  0  0  0  0  0  0  0  0
   47.5424    9.0582   19.3034 C   0  0  0  0  0  0  0  0  0  0  0  0
   47.5203    7.5481   19.1157 C   0  0  0  0  0  0  0  0  0  0  0  0
   47.9970   13.9863   16.9380 C   0  0  0  0  0  0  0  0  0  0  0  0
   46.7953   10.7318   17.6941 H   0  0  0  0  0  0  0  0  0  0  0  0
   48.9934    9.5287   19.4734 H   0  0  0  0  0  0  0  0  0  0  0  0
   47.6049    8.6222   18.8926 H   0  0  0  0  0  0  0  0  0  0  0  0
   48.1401   12.4029   19.0028 H   0  0  0  0  0  0  0  0  0  0  0  0
   49.6276   11.7384   18.3428 H   0  0  0  0  0  0  0  0  0  0  0  0
   48.8614   12.3598   16.0284 H   0  0  0  0  0  0  0  0  0  0  0  0
   47.3517   12.9786   16.7004 H   0  0  0  0  0  0  0  0  0  0  0  0
   46.0700   10.2725   20.0284 H   0  0  0  0  0  0  0  0  0  0  0  0
   47.4820   11.0983   20.6925 H   0  0  0  0  0  0  0  0  0  0  0  0
   46.5490    9.5211   22.3363 H   0  0  0  0  0  0  0  0  0  0  0  0
   46.7498    8.1723   21.2053 H   0  0  0  0  0  0  0  0  0  0  0  0
   48.1753    9.0034   21.8592 H   0  0  0  0  0  0  0  0  0  0  0  0
   48.6324   14.6735   18.0206 H   0  0  0  0  0  0  0  0  0  0  0  0
   50.1511   14.0421   17.3535 H   0  0  0  0  0  0  0  0  0  0  0  0
   48.9634   14.8092   16.2854 H   0  0  0  0  0  0  0  0  0  0  0  0
   49.2354   11.6091   17.6112 H   0  0  0  0  0  0  0  0  0  0  0  0
   51.0034   11.6717   20.5004 H   0  0  0  0  0  0  0  0  0  0  0  0
   46.6471   11.7626   19.2366 H   0  0  0  0  0  0  0  0  0  0  0  0
   46.6878   11.6042   17.4846 H   0  0  0  0  0  0  0  0  0  0  0  0
   49.4655    9.2752   18.3592 H   0  0  0  0  0  0  0  0  0  0  0  0
   48.1035    9.5093   17.2740 H   0  0  0  0  0  0  0  0  0  0  0  0
   47.8912   13.9296   19.0845 H   0  0  0  0  0  0  0  0  0  0  0  0
   46.3324   13.9242   18.2747 H   0  0  0  0  0  0  0  0  0  0  0  0
   46.5205    9.4369   19.1964 H   0  0  0  0  0  0  0  0  0  0  0  0
   47.8706    9.2824   20.3240 H   0  0  0  0  0  0  0  0  0  0  0  0
   46.8535    7.0849   19.8496 H   0  0  0  0  0  0  0  0  0  0  0  0
   48.5196    7.1215   19.2481 H   0  0  0  0  0  0  0  0  0  0  0  0
   47.1621    7.2824   18.1161 H   0  0  0  0  0  0  0  0  0  0  0  0
   47.9237   15.0760   16.8601 H   0  0  0  0  0  0  0  0  0  0  0  0
   47.5009   13.5510   16.0649 H   0  0  0  0  0  0  0  0  0  0  0  0
   49.0584   13.7252   16.9010 H   0  0  0  0  0  0  0  0  0  0  0  0
  3  2  1  0
  4  2  2  0
  5  2  1  0
  6  5  1  0
  7  5  1  0
  8  7  1  0
  9  6  1  0
 10  9  1  0
 11  8  1  0
 13 12  2  0
 14 12  1  0
 15 12  1  0
 16 14  1  0
 17 14  1  0
 18 16  1  0
 19 17  1  0
 20 19  1  0
 21 18  1  0
  5 22  1  0
  6 23  1  0
  6 24  1  0
  7 25  1  0
  7 26  1  0
  8 27  1  0
  8 28  1  0
  9 29  1  0
  9 30  1  0
 10 31  1  0
 10 32  1  0
 10 33  1  0
 11 34  1  0
 11 35  1  0
 11 36  1  0
 14 37  1  0
 15 38  1  0
 16 39  1  0
 16 40  1  0
 17 41  1  0
 17 42  1  0
 18 43  1  0
 18 44  1  0
 19 45  1  0
 19 46  1  0
 20 47  1  0
 20 48  1  0
 20 49  1  0
 21 50  1  0
 21 51  1  0
 21 52  1  0
M  CHG  2   1   1   3  -1
M  END
> <Uni-Dock RESULT> 
ENERGY=   -3.727  LOWER_BOUND=    3.580  UPPER_BOUND=    6.428
INTER + INTRA:          -3.727
INTER:                  -3.727
INTRA:                   0.000
UNBOUND:                 0.000

$$$$

     RDKit          3D

 52 49  0  0  0  0  0  0  0  0999 V2000
   48.1347   10.3618   20.6775 Na  0  0  0  0  0 15  0  0  0  0  0  0
   47.6637   12.4773   21.2087 C   0  0  0  0  0  0  0  0  0  0  0  0
   46.5713   13.1146   21.2143 O   0  0  0  0  0  0  0  0  0  0  0  0
   48.8240   12.8733   21.5123 O   0  0  0  0  0  0  0  0  0  0  0  0
   47.5435   11.0067   20.7572 C   0  0  0  0  0  0  0  0  0  0  0  0
   48.0445   10.9992   19.3018 C   0  0  0  0  0  0  0  0  0  0  0  0
   48.3352   10.0538   21.6629 C   0  0  0  0  0  0  0  0  0  0  0  0
   47.7917   10.0266   23.0956 C   0  0  0  0  0  0  0  0  0  0  0  0
   47.7234    9.6969   18.5633 C   0  0  0  0  0  0  0  0  0  0  0  0
   48.1446    9.7694   17.1032 C   0  0  0  0  0  0  0  0  0  0  0  0
   48.5578    9.0378   23.9609 C   0  0  0  0  0  0  0  0  0  0  0  0
   49.6203    9.5509   20.5146 C   0  0  0  0  0  0  0  0  0  0  0  0
   49.5658    8.5279   19.8538 O   0  0  0  0  0  0  0  0  0  0  0  0
   48.4578   10.3667   21.0422 C   0  0  0  0  0  0  0  0  0  0  0  0
   50.8131   10.0876   20.8403 O   0  0  0  0  0  0  0  0  0  0  0  0
   47.1988    9.5021   21.2330 C   0  0  0  0  0  0  0  0  0  0  0  0
   48.2134   11.5814   20.1264 C   0  0  0  0  0  0  0  0  0  0  0  0
   47.3127    8.4367   22.3317 C   0  0  0  0  0  0  0  0  0  0  0  0
   47.6976   11.2418   18.7242 C   0  0  0  0  0  0  0  0  0  0  0  0
   47.5437   12.4953   17.8750 C   0  0  0  0  0  0  0  0  0  0  0  0
   47.4615    9.0141   23.7311 C   0  0  0  0  0  0  0  0  0  0  0  0
   46.4838   10.7196   20.7743 H   0  0  0  0  0  0  0  0  0  0  0  0
   49.1283   11.1731   19.2756 H   0  0  0  0  0  0  0  0  0  0  0  0
   47.5862   11.8329   18.7526 H   0  0  0  0  0  0  0  0  0  0  0  0
   48.2852    9.0362   21.2589 H   0  0  0  0  0  0  0  0  0  0  0  0
   49.3966   10.3312   21.6803 H   0  0  0  0  0  0  0  0  0  0  0  0
   47.8613   11.0209   23.5502 H   0  0  0  0  0  0  0  0  0  0  0  0
   46.7317    9.7476   23.0849 H   0  0  0  0  0  0  0  0  0  0  0  0
   46.6475    9.4943   18.6161 H   0  0  0  0  0  0  0  0  0  0  0  0
   48.2386    8.8528   19.0330 H   0  0  0  0  0  0  0  0  0  0  0  0
   47.9081    8.8301   16.5937 H   0  0  0  0  0  0  0  0  0  0  0  0
   47.6218   10.5784   16.5831 H   0  0  0  0  0  0  0  0  0  0  0  0
   49.2219    9.9426   17.0142 H   0  0  0  0  0  0  0  0  0  0  0  0
   48.4788    8.0221   23.5603 H   0  0  0  0  0  0  0  0  0  0  0  0
   49.6180    9.3046   24.0162 H   0  0  0  0  0  0  0  0  0  0  0  0
   48.1549    9.0335   24.9785 H   0  0  0  0  0  0  0  0  0  0  0  0
   48.7580   10.7567   22.0223 H   0  0  0  0  0  0  0  0  0  0  0  0
   51.4644    9.4760   20.4372 H   0  0  0  0  0  0  0  0  0  0  0  0
   46.9566    8.9839   20.2968 H   0  0  0  0  0  0  0  0  0  0  0  0
   46.3442   10.1510   21.4626 H   0  0  0  0  0  0  0  0  0  0  0  0
   49.1470   12.1514   20.0315 H   0  0  0  0  0  0  0  0  0  0  0  0
   47.4929   12.2490   20.6164 H   0  0  0  0  0  0  0  0  0  0  0  0
   48.1491    7.7599   22.1260 H   0  0  0  0  0  0  0  0  0  0  0  0
   46.4032    7.8241   22.3080 H   0  0  0  0  0  0  0  0  0  0  0  0
   46.7249   10.7425   18.7868 H   0  0  0  0  0  0  0  0  0  0  0  0
   48.3869   10.5561   18.2199 H   0  0  0  0  0  0  0  0  0  0  0  0
   47.1739   12.2347   16.8784 H   0  0  0  0  0  0  0  0  0  0  0  0
   48.5026   13.0099   17.7574 H   0  0  0  0  0  0  0  0  0  0  0  0
   46.8325   13.1921   18.3297 H   0  0  0  0  0  0  0  0  0  0  0  0
   47.4113    8.2117   24.4744 H   0  0  0  0  0  0  0  0  0  0  0  0
   46.6613    9.7280   23.9501 H   0  0  0  0  0  0  0  0  0  0  0  0
   48.4230    9.5195   23.8582 H   0  0  0  0  0  0  0  0  0  0  0  0
  3  2  1  0
  4  2  2  0
  5  2  1  0
  6  5  1  0
  7  5  1  0
  8  7  1  0
  9  6  1  0
 10  9  1  0
 11  8  1  0
 13 12  2  0
 14 12  1  0
 15 12  1  0
 16 14  1  0
 17 14  1  0
 18 16  1  0
 19 17  1  0
 20 19  1  0
 21 18  1  0
  5 22  1  0
  6 23  1  0
  6 24  1  0
  7 25  1  0
  7 26  1  0
  8 27  1  0
  8 28  1  0
  9 29  1  0
  9 30  1  0
 10 31  1  0
 10 32  1  0
 10 33  1  0
 11 34  1  0
 11 35  1  0
 11 36  1  0
 14 37  1  0
 15 38  1  0
 16 39  1  0
 16 40  1  0
 17 41  1  0
 17 42  1  0
 18 43  1  0
 18 44  1  0
 19 45  1  0
 19 46  1  0
 20 47  1  0
 20 48  1  0
 20 49  1  0
 21 50  1  0
 21 51  1  0
 21 52  1  0
M  CHG  2   1   1   3  -1
M  END
> <Uni-Dock RESULT> 
ENERGY=   -3.616  LOWER_BOUND=    4.093  UPPER_BOUND=    5.804
INTER + INTRA:          -3.616
INTER:                  -3.616
INTRA:                   0.000
UNBOUND:                 0.000

$$$$
